/*---------------------------------------------------------------------------*\
| =========                 |                                                 |
| \\      /  F ield         | OpenFOAM: The Open Source CFD Toolbox           |
|  \\    /   O peration     | Version:  2512                                  |
|   \\  /    A nd           | Website:  www.openfoam.com                      |
|    \\/     M anipulation  |                                                 |
\*---------------------------------------------------------------------------*/
Build  : _bd2b6720-20260127 OPENFOAM=2512 version=2512
Arch   : "LSB;label=32;scalar=64"
Exec   : solids4Foam
Date   : Apr 15 2026
Time   : 18:59:19
Host   : f36e8d0cf1e6
PID    : 579
I/O    : uncollated
Case   : /simulation/validation/solid
nProcs : 1
trapFpe: Floating point exception trapping enabled (FOAM_SIGFPE).
memory pool : not available
fileModificationChecking : Monitoring run-time modified files using timeStampMaster (fileModificationSkew 5, maxFileModificationPolls 20)
allowSystemOperations : Allowing user-supplied system call operations

// * * * * * * * * * * * * * * * * * * * * * * * * * * * * * * * * * * * * * //
Create time

/*---------------------------------------------------------------------------*\
|    For further information on the solids4Foam toolbox implementations,      |
|    please see www.solids4foam.com and the following publication:            |
|                                                                             |
|    P. Cardiff, I. Batistić Ž. Tuković: solids4foam: A toolbox for           |
|    performing solid mechanics and fluid-solid interaction simulations in    |
|    OpenFOAM. Journal of Open Source Software. 2025, 10(108), 7407,          |
|    10.21105/joss.07407.                                                     |
\*---------------------------------------------------------------------------*/

Selecting physicsModel solidModel
Selecting solidModel unsLinearGeometry
Creating fixedDisplacement boundary condition
Creating solidTraction boundary condition
Creating solidTraction boundary condition
Creating solidTraction boundary condition
    under-relaxation method: fixed
No finite volume options present
Creating the mechanicalModel
Selecting mechanical law linearElastic
Time = 0.1

Evolving solid solver
Solving the momentum equation for D
setCellDisplacements: reading cellDisplacements
    Corr, res, relRes, matRes, iters
    10, 0.052649943, 0.075462702, 0, 3
    20, 0.024447054, 0.04075519, 0, 3
    30, 0.015760695, 0.027707963, 0, 3
    40, 0.011556538, 0.020879355, 0, 3
    50, 0.0090819282, 0.016684098, 0, 3
    60, 0.0074540237, 0.013847939, 0, 3
    70, 0.0063029545, 0.011804212, 0, 3
    80, 0.0054467429, 0.010262621, 0, 3
    90, 0.0047854218, 0.0090591005, 0, 3
    100, 0.0042595891, 0.0080939491, 0, 3
    110, 0.0038316744, 0.007303102, 0, 3
    120, 0.0034768422, 0.0066435234, 0, 3
    130, 0.0031779459, 0.0060852388, 0, 3
    140, 0.002922818, 0.0056067336, 0, 3
    150, 0.002702558, 0.0051921678, 0, 3
    160, 0.0025105705, 0.0048296229, 0, 3
    170, 0.0023417351, 0.0045099603, 0, 3
    180, 0.0021921211, 0.0042260567, 0, 3
    190, 0.0020586407, 0.0039722782, 0, 3
--> FOAM Warning : Max iterations reached within momentum loop
Max epsilonEq = 2.5672283e-06
Max sigmaEq (von Mises stress) = 592437.3
ExecutionTime = 0.21 s  ClockTime = 0 s

Time = 0.2

Evolving solid solver
Solving the momentum equation for D
    Corr, res, relRes, matRes, iters
    10, 0.0018307254, 0.089991521, 0, 3
    20, 0.0017326922, 0.046670567, 0, 3
    30, 0.001643396, 0.031306517, 0, 3
    40, 0.0015617325, 0.023442593, 0, 3
    50, 0.0014867678, 0.018666598, 0, 3
    60, 0.0014177228, 0.015459612, 0, 3
    70, 0.0013539224, 0.013158467, 0, 3
    80, 0.0012947972, 0.011427564, 0, 3
    90, 0.0012398509, 0.010078792, 0, 3
    100, 0.0011886609, 0.008998483, 0, 3
    110, 0.0011408581, 0.0081139931, 0, 3
    120, 0.0010961195, 0.007376702, 0, 3
    130, 0.0010541628, 0.0067528411, 0, 3
    140, 0.0010147376, 0.006218227, 0, 3
    150, 0.00097762339, 0.0057550864, 0, 3
    160, 0.0009426251, 0.0053500657, 0, 3
    170, 0.00090957016, 0.0049929381, 0, 3
    180, 0.00087830216, 0.0046757372, 0, 3
    190, 0.00084868142, 0.0043921559, 0, 3
--> FOAM Warning : Max iterations reached within momentum loop
Max epsilonEq = 3.3046496e-06
Max sigmaEq (von Mises stress) = 762611.44
ExecutionTime = 0.31 s  ClockTime = 0 s

Time = 0.3

Evolving solid solver
Solving the momentum equation for D
    Corr, res, relRes, matRes, iters
    10, 0.00079389232, 0.090131856, 0, 3
    20, 0.00076851101, 0.046809067, 0, 3
    30, 0.00074434596, 0.031439222, 0, 3
    40, 0.00072131317, 0.023568856, 0, 3
    50, 0.00069933631, 0.018786443, 0, 3
    60, 0.000678346, 0.015573266, 0, 3
    70, 0.0006582786, 0.013266228, 0, 3
    80, 0.00063907568, 0.011529688, 0, 3
    90, 0.00062068467, 0.010175545, 0, 3
    100, 0.00060305663, 0.0090901934, 0, 3
    110, 0.00058614653, 0.0082009685, 0, 3
    120, 0.00056991287, 0.0074592289, 0, 3
    130, 0.0005543171, 0.0068311865, 0, 3
    140, 0.00053932371, 0.0062926395, 0, 3
    150, 0.00052489974, 0.0058257981, 0, 3
    160, 0.00051101436, 0.005417293, 0, 3
    170, 0.00049763954, 0.0050568828, 0, 3
    180, 0.00048474901, 0.0047365901, 0, 3
    190, 0.00047231815, 0.0044501086, 0, 3
--> FOAM Warning : Max iterations reached within momentum loop
Max epsilonEq = 3.7459581e-06
Max sigmaEq (von Mises stress) = 864451.87
ExecutionTime = 0.4 s  ClockTime = 0 s

Time = 0.4

Evolving solid solver
Solving the momentum equation for D
    Corr, res, relRes, matRes, iters
    10, 0.0004487452, 0.090161552, 0, 3
    20, 0.00043756166, 0.046838493, 0, 3
    30, 0.00042675464, 0.031467516, 0, 3
    40, 0.00041630656, 0.023595856, 0, 3
    50, 0.00040620092, 0.018812137, 0, 3
    60, 0.00039642201, 0.015597687, 0, 3
    70, 0.00038695546, 0.013289426, 0, 3
    80, 0.00037778764, 0.011551722, 0, 3
    90, 0.00036890565, 0.010196472, 0, 3
    100, 0.00036029731, 0.0091100712, 0, 3
    110, 0.00035195114, 0.008219854, 0, 3
    120, 0.00034385629, 0.0074771762, 0, 3
    130, 0.00033600249, 0.0068482471, 0, 3
    140, 0.00032838004, 0.0063088622, 0, 3
    150, 0.00032097973, 0.0058412293, 0, 3
    160, 0.00031379287, 0.0054319763, 0, 3
    170, 0.00030681119, 0.0050708596, 0, 3
    180, 0.00030002685, 0.0047498993, 0, 3
    190, 0.00029343239, 0.0044627868, 0, 3
--> FOAM Warning : Max iterations reached within momentum loop
Max epsilonEq = 4.584705e-06
Max sigmaEq (von Mises stress) = 1058008.8
ExecutionTime = 0.51 s  ClockTime = 0 s

Time = 0.5

Evolving solid solver
Solving the momentum equation for D
    Corr, res, relRes, matRes, iters
    10, 0.00028078505, 0.09016805, 0, 3
    20, 0.00027471902, 0.046844933, 0, 3
    30, 0.00026881657, 0.031473707, 0, 3
    40, 0.0002630719, 0.023601765, 0, 3
    50, 0.00025747946, 0.018817759, 0, 3
    60, 0.00025203397, 0.015603031, 0, 3
    70, 0.00024673037, 0.013294502, 0, 3
    80, 0.00024156384, 0.011556542, 0, 3
    90, 0.00023652977, 0.010201049, 0, 3
    100, 0.00023162376, 0.0091144192, 0, 3
    110, 0.00022684158, 0.0082239846, 0, 3
    120, 0.00022217921, 0.0074811012, 0, 3
    130, 0.00021763277, 0.0068519778, 0, 3
    140, 0.00021319856, 0.0063124095, 0, 3
    150, 0.00020887304, 0.0058446031, 0, 3
    160, 0.00020465278, 0.0054351864, 0, 3
    170, 0.00020053454, 0.005073915, 0, 3
    180, 0.00019651517, 0.0047528085, 0, 3
    190, 0.00019259165, 0.0044655578, 0, 3
--> FOAM Warning : Max iterations reached within momentum loop
Max epsilonEq = 5.2014224e-06
Max sigmaEq (von Mises stress) = 1200328.2
ExecutionTime = 0.61 s  ClockTime = 1 s

Time = 0.6

Evolving solid solver
Solving the momentum equation for D
    Corr, res, relRes, matRes, iters
    10, 0.00018502073, 0.090169466, 0, 3
    20, 0.00018136786, 0.046846336, 0, 3
    30, 0.00017779993, 0.031475056, 0, 3
    40, 0.00017431446, 0.023603052, 0, 3
    50, 0.00017090906, 0.018818985, 0, 3
    60, 0.00016758144, 0.015604195, 0, 3
    70, 0.00016432939, 0.013295608, 0, 3
    80, 0.00016115077, 0.011557592, 0, 3
    90, 0.00015804353, 0.010202047, 0, 3
    100, 0.00015500569, 0.0091153667, 0, 3
    110, 0.00015203534, 0.0082248847, 0, 3
    120, 0.00014913063, 0.0074819565, 0, 3
    130, 0.00014628978, 0.0068527907, 0, 3
    140, 0.00014351107, 0.0063131823, 0, 3
    150, 0.00014079284, 0.0058453382, 0, 3
    160, 0.00013813348, 0.0054358858, 0, 3
    170, 0.00013553144, 0.0050745806, 0, 3
    180, 0.00013298523, 0.0047534422, 0, 3
    190, 0.00013049338, 0.0044661614, 0, 3
--> FOAM Warning : Max iterations reached within momentum loop
Max epsilonEq = 5.6469952e-06
Max sigmaEq (von Mises stress) = 1303152.7
ExecutionTime = 0.71 s  ClockTime = 1 s

Time = 0.7

Evolving solid solver
Solving the momentum equation for D
    Corr, res, relRes, matRes, iters
    10, 0.00012566723, 0.090169775, 0, 3
    20, 0.00012333025, 0.046846642, 0, 3
    30, 0.00012104229, 0.03147535, 0, 3
    40, 0.00011880212, 0.023603333, 0, 3
    50, 0.00011660852, 0.018819251, 0, 3
    60, 0.00011446036, 0.015604449, 0, 3
    70, 0.00011235651, 0.013295849, 0, 3
    80, 0.0001102959, 0.011557821, 0, 3
    90, 0.00010827746, 0.010202264, 0, 3
    100, 0.00010630017, 0.0091155729, 0, 3
    110, 0.00010436305, 0.0082250806, 0, 3
    120, 0.00010246512, 0.0074821426, 0, 3
    130, 0.00010060547, 0.0068529676, 0, 3
    140, 9.8783169e-05, 0.0063133506, 0, 3
    150, 9.6997352e-05, 0.0058454982, 0, 3
    160, 9.5247162e-05, 0.005436038, 0, 3
    170, 9.3531766e-05, 0.0050747255, 0, 3
    180, 9.185036e-05, 0.0047535802, 0, 3
    190, 9.0202159e-05, 0.0044662928, 0, 3
--> FOAM Warning : Max iterations reached within momentum loop
Max epsilonEq = 5.9686638e-06
Max sigmaEq (von Mises stress) = 1377383.9
ExecutionTime = 0.82 s  ClockTime = 1 s

Time = 0.8

Evolving solid solver
Solving the momentum equation for D
    Corr, res, relRes, matRes, iters
    10, 8.7002349e-05, 0.090169842, 0, 3
    20, 8.544928e-05, 0.046846708, 0, 3
    30, 8.3926494e-05, 0.031475414, 0, 3
    40, 8.2433311e-05, 0.023603394, 0, 3
    50, 8.0969069e-05, 0.018819309, 0, 3
    60, 7.9533122e-05, 0.015604504, 0, 3
    70, 7.8124845e-05, 0.013295901, 0, 3
    80, 7.6743626e-05, 0.011557871, 0, 3
    90, 7.5388872e-05, 0.010202311, 0, 3
    100, 7.4060003e-05, 0.0091156178, 0, 3
    110, 7.2756457e-05, 0.0082251232, 0, 3
    120, 7.1477686e-05, 0.0074821831, 0, 3
    130, 7.0223153e-05, 0.0068530061, 0, 3
    140, 6.8992339e-05, 0.0063133872, 0, 3
    150, 6.7784736e-05, 0.005845533, 0, 3
    160, 6.659985e-05, 0.0054360711, 0, 3
    170, 6.5437199e-05, 0.005074757, 0, 3
    180, 6.4296313e-05, 0.0047536102, 0, 3
    190, 6.3176733e-05, 0.0044663214, 0, 3
--> FOAM Warning : Max iterations reached within momentum loop
Max epsilonEq = 6.2008433e-06
Max sigmaEq (von Mises stress) = 1430963.8
ExecutionTime = 0.91 s  ClockTime = 1 s

Time = 0.9

Evolving solid solver
Solving the momentum equation for D
    Corr, res, relRes, matRes, iters
    10, 6.0999718e-05, 0.090169856, 0, 3
    20, 5.9941422e-05, 0.046846723, 0, 3
    30, 5.8902711e-05, 0.031475428, 0, 3
    40, 5.788318e-05, 0.023603407, 0, 3
    50, 5.6882435e-05, 0.018819322, 0, 3
    60, 5.5900091e-05, 0.015604516, 0, 3
    70, 5.4935771e-05, 0.013295913, 0, 3
    80, 5.3989109e-05, 0.011557882, 0, 3
    90, 5.3059747e-05, 0.010202322, 0, 3
    100, 5.2147334e-05, 0.0091156276, 0, 3
    110, 5.125153e-05, 0.0082251325, 0, 3
    120, 5.0372e-05, 0.0074821919, 0, 3
    130, 4.950842e-05, 0.0068530145, 0, 3
    140, 4.866047e-05, 0.0063133951, 0, 3
    150, 4.7827839e-05, 0.0058455406, 0, 3
    160, 4.7010225e-05, 0.0054360783, 0, 3
    170, 4.620733e-05, 0.0050747639, 0, 3
    180, 4.5418864e-05, 0.0047536167, 0, 3
    190, 4.4644543e-05, 0.0044663276, 0, 3
--> FOAM Warning : Max iterations reached within momentum loop
Max epsilonEq = 6.3684236e-06
Max sigmaEq (von Mises stress) = 1469636.2
ExecutionTime = 1.01 s  ClockTime = 1 s

Time = 1

Evolving solid solver
Solving the momentum equation for D
    Corr, res, relRes, matRes, iters
    10, 4.3137236e-05, 0.09016986, 0, 3
    20, 4.2403714e-05, 0.046846726, 0, 3
    30, 4.1683266e-05, 0.031475431, 0, 3
    40, 4.0975638e-05, 0.02360341, 0, 3
    50, 4.0280583e-05, 0.018819325, 0, 3
    60, 3.9597859e-05, 0.015604518, 0, 3
    70, 3.8927228e-05, 0.013295915, 0, 3
    80, 3.8268459e-05, 0.011557884, 0, 3
    90, 3.7621326e-05, 0.010202324, 0, 3
    100, 3.6985606e-05, 0.0091156297, 0, 3
    110, 3.6361082e-05, 0.0082251345, 0, 3
    120, 3.5747542e-05, 0.0074821938, 0, 3
    130, 3.5144779e-05, 0.0068530163, 0, 3
    140, 3.4552588e-05, 0.0063133969, 0, 3
    150, 3.3970771e-05, 0.0058455422, 0, 3
    160, 3.3399133e-05, 0.0054360799, 0, 3
    170, 3.2837482e-05, 0.0050747653, 0, 3
    180, 3.2285633e-05, 0.0047536181, 0, 3
    190, 3.1743402e-05, 0.004466329, 0, 3
--> FOAM Warning : Max iterations reached within momentum loop
Max epsilonEq = 6.4893771e-06
Max sigmaEq (von Mises stress) = 1497548.6
ExecutionTime = 1.11 s  ClockTime = 1 s

--> FOAM Warning : 
    From unsLinearGeometry::end()
    in file solidModels/solidModel/solidModel.C at line 1354
    The maximum momentum correctors were reached in 10 time-steps


End

