/*--------------------------------*- C++ -*----------------------------------*\
| =========                 |                                                 |
| \\      /  F ield         | OpenFOAM: The Open Source CFD Toolbox           |
|  \\    /   O peration     | Version:  2512                                  |
|   \\  /    A nd           | Website:  www.openfoam.com                      |
|    \\/     M anipulation  |                                                 |
\*---------------------------------------------------------------------------*/
FoamFile
{
    version     2.0;
    format      ascii;
    arch        "LSB;label=32;scalar=64";
    class       dictionary;
    location    "constant";
    object      mechanicalProperties.withDefaultValues;
}
// * * * * * * * * * * * * * * * * * * * * * * * * * * * * * * * * * * * * * //

planeStress     no;

mechanical      1 ( zonulaBiot { type poroMechanicalLaw ; rho rho [ 1 -3 0 0 0 0 0 ] 1200 ; biotCoeff biotCoeff [ 0 0 0 0 0 0 0 ] 1 ; effectiveStressMechanicalLaw { type linearElastic ; E E [ 1 -1 -2 0 0 0 0 ] 100000 ; nu nu [ 0 0 0 0 0 0 0 ] 0.3 ; } solvePressureEqn false ; pressureSmoothingScaleFactor 100 ; pressureFieldName p ; pressureFieldRegion region0 ; p0 zero [ 1 -1 -2 0 0 0 0 ] 0 ; } ; )


// ************************************************************************* //
