FoamFile
{
    version     2.0;
    format      ascii;
    class       uniformDimensionedVectorField;
    object      g;
}

// Gravity disabled — lens deformation driven by fluid pressure, not buoyancy.
dimensions      [0 1 -2 0 0 0 0];

value           (0 0 0);
