FoamFile
{
    version     2.0;
    format      ascii;
    class       dictionary;
    object      mechanicalProperties;
}

// eye-fsi-tc0 — SOLID — rabbit ocular tissue densities (Table I)
//
//   iris/ciliary   ρ=1100 kg/m³
//   lens           ρ=1050 kg/m³
//   sclera/choroid ρ=1100 kg/m³
//   cornea         ρ=1050 kg/m³
// E values: placeholder for FSI development (not from Table I)

planeStress     no;

mechanical
(
    iris
    {
        type    linearElastic;
        rho     rho [ 1 -3  0 0 0 0 0 ] 1100;
        E       E   [ 1 -1 -2 0 0 0 0 ] 1e6;
        nu      nu  [ 0  0  0 0 0 0 0 ] 0.30;
    }
    sclera_stub
    {
        type    linearElastic;
        rho     rho [ 1 -3  0 0 0 0 0 ] 1100;
        E       E   [ 1 -1 -2 0 0 0 0 ] 1e6;
        nu      nu  [ 0  0  0 0 0 0 0 ] 0.30;
    }
    lens
    {
        type    linearElastic;
        rho     rho [ 1 -3  0 0 0 0 0 ] 1050;
        E       E   [ 1 -1 -2 0 0 0 0 ] 1e6;
        nu      nu  [ 0  0  0 0 0 0 0 ] 0.30;
    }
    sclera
    {
        type    linearElastic;
        rho     rho [ 1 -3  0 0 0 0 0 ] 1100;
        E       E   [ 1 -1 -2 0 0 0 0 ] 1e9;
        nu      nu  [ 0  0  0 0 0 0 0 ] 0.45;
    }
    cornea
    {
        type    linearElastic;
        rho     rho [ 1 -3  0 0 0 0 0 ] 1050;
        E       E   [ 1 -1 -2 0 0 0 0 ] 1e8;
        nu      nu  [ 0  0  0 0 0 0 0 ] 0.45;
    }
);
