/*--------------------------------*- C++ -*----------------------------------*\
| =========                 |                                                 |
| \\      /  F ield         | OpenFOAM: The Open Source CFD Toolbox           |
|  \\    /   O peration     | Version:  2512                                  |
|   \\  /    A nd           | Website:  www.openfoam.com                      |
|    \\/     M anipulation  |                                                 |
\*---------------------------------------------------------------------------*/
FoamFile
{
    version     2.0;
    format      ascii;
    arch        "LSB;label=32;scalar=64";
    class       dictionary;
    location    "constant";
    object      mechanicalProperties.withDefaultValues;
}
// * * * * * * * * * * * * * * * * * * * * * * * * * * * * * * * * * * * * * //

planeStress     no;

mechanical      4 ( on { type linearElastic ; rho rho [ 1 -3 0 0 0 0 0 ] 1000 ; E E [ 1 -1 -2 0 0 0 0 ] 30000 ; nu nu [ 0 0 0 0 0 0 0 ] 0.45 ; solvePressureEqn false ; pressureSmoothingScaleFactor 100 ; } ; pia { type linearElastic ; rho rho [ 1 -3 0 0 0 0 0 ] 1100 ; E E [ 1 -1 -2 0 0 0 0 ] 3000000 ; nu nu [ 0 0 0 0 0 0 0 ] 0.45 ; solvePressureEqn false ; pressureSmoothingScaleFactor 100 ; } ; sas


// ************************************************************************* //
