/*---------------------------------------------------------------------------*\
| =========                 |                                                 |
| \\      /  F ield         | OpenFOAM: The Open Source CFD Toolbox           |
|  \\    /   O peration     | Version:  2512                                  |
|   \\  /    A nd           | Website:  www.openfoam.com                      |
|    \\/     M anipulation  |                                                 |
\*---------------------------------------------------------------------------*/
Build  : _bd2b6720-20260127 OPENFOAM=2512 version=2512
Arch   : "LSB;label=32;scalar=64"
Exec   : pimpleFoam
Date   : Apr 15 2026
Time   : 18:59:18
Host   : f36e8d0cf1e6
PID    : 576
I/O    : uncollated
Case   : /simulation/validation/fluid
nProcs : 1
trapFpe: Floating point exception trapping enabled (FOAM_SIGFPE).
memory pool : not available
fileModificationChecking : Monitoring run-time modified files using timeStampMaster (fileModificationSkew 5, maxFileModificationPolls 20)
allowSystemOperations : Allowing user-supplied system call operations

// * * * * * * * * * * * * * * * * * * * * * * * * * * * * * * * * * * * * * //
Create time

Create mesh for time = 0


PIMPLE: Operating solver in PISO mode

Reading field p

Reading field U

Reading/calculating face flux field phi

Selecting incompressible transport model Newtonian
Selecting turbulence model type laminar
Selecting laminar stress model Stokes
No MRF models present

No finite volume options present
Courant Number mean: 0 max: 0
Courant Number mean: 0 max: 0

Starting time loop

Courant Number mean: 0 max: 0
Time = 0.005

PIMPLE: iteration 1
smoothSolver:  Solving for Ux, Initial residual = 1, Final residual = 8.90511e-06, No Iterations 19
smoothSolver:  Solving for Uy, Initial residual = 0.990973, Final residual = 9.36453e-06, No Iterations 15
GAMG:  Solving for p, Initial residual = 1, Final residual = 0.00456803, No Iterations 4
time step continuity errors : sum local = 3.28168e-05, global = 1.23084e-19, cumulative = 1.23084e-19
GAMG:  Solving for p, Initial residual = 0.524409, Final residual = 4.94322e-07, No Iterations 14
time step continuity errors : sum local = 6.13872e-09, global = -4.05319e-20, cumulative = 8.25526e-20
ExecutionTime = 0.07 s  ClockTime = 0 s

Courant Number mean: 0.0976773 max: 0.585673
Time = 0.01

PIMPLE: iteration 1
smoothSolver:  Solving for Ux, Initial residual = 0.148314, Final residual = 9.85895e-06, No Iterations 18
smoothSolver:  Solving for Uy, Initial residual = 0.24842, Final residual = 6.25889e-06, No Iterations 19
GAMG:  Solving for p, Initial residual = 0.377239, Final residual = 0.00142077, No Iterations 4
time step continuity errors : sum local = 1.4616e-05, global = 3.3749e-20, cumulative = 1.16302e-19
GAMG:  Solving for p, Initial residual = 0.293951, Final residual = 8.39553e-07, No Iterations 13
time step continuity errors : sum local = 9.33966e-09, global = -4.04362e-20, cumulative = 7.58654e-20
ExecutionTime = 0.07 s  ClockTime = 0 s

Courant Number mean: 0.143448 max: 0.756581
Time = 0.015

PIMPLE: iteration 1
smoothSolver:  Solving for Ux, Initial residual = 0.045355, Final residual = 9.71108e-06, No Iterations 15
smoothSolver:  Solving for Uy, Initial residual = 0.0876236, Final residual = 6.73857e-06, No Iterations 17
GAMG:  Solving for p, Initial residual = 0.132413, Final residual = 0.000579471, No Iterations 3
time step continuity errors : sum local = 4.60229e-06, global = 1.36319e-19, cumulative = 2.12185e-19
GAMG:  Solving for p, Initial residual = 0.093979, Final residual = 7.65772e-07, No Iterations 10
time step continuity errors : sum local = 6.54229e-09, global = 2.26978e-19, cumulative = 4.39163e-19
ExecutionTime = 0.07 s  ClockTime = 0 s

Courant Number mean: 0.165915 max: 0.798658
Time = 0.02

PIMPLE: iteration 1
smoothSolver:  Solving for Ux, Initial residual = 0.0242736, Final residual = 9.68123e-06, No Iterations 14
smoothSolver:  Solving for Uy, Initial residual = 0.0480716, Final residual = 7.29103e-06, No Iterations 16
GAMG:  Solving for p, Initial residual = 0.0552774, Final residual = 0.000530863, No Iterations 3
time step continuity errors : sum local = 4.43231e-06, global = -6.91523e-19, cumulative = -2.5236e-19
GAMG:  Solving for p, Initial residual = 0.0418039, Final residual = 6.21236e-07, No Iterations 11
time step continuity errors : sum local = 5.2677e-09, global = -1.09874e-18, cumulative = -1.3511e-18
ExecutionTime = 0.07 s  ClockTime = 0 s

Courant Number mean: 0.180613 max: 0.818037
Time = 0.025

PIMPLE: iteration 1
smoothSolver:  Solving for Ux, Initial residual = 0.0151201, Final residual = 6.50413e-06, No Iterations 14
smoothSolver:  Solving for Uy, Initial residual = 0.0310796, Final residual = 8.50708e-06, No Iterations 15
GAMG:  Solving for p, Initial residual = 0.0352241, Final residual = 9.64466e-05, No Iterations 3
time step continuity errors : sum local = 7.31425e-07, global = 2.13909e-19, cumulative = -1.13719e-18
GAMG:  Solving for p, Initial residual = 0.0270603, Final residual = 8.66859e-07, No Iterations 6
time step continuity errors : sum local = 6.54879e-09, global = 6.65219e-19, cumulative = -4.71976e-19
ExecutionTime = 0.08 s  ClockTime = 0 s

Courant Number mean: 0.190709 max: 0.828496
Time = 0.03

PIMPLE: iteration 1
smoothSolver:  Solving for Ux, Initial residual = 0.0104815, Final residual = 8.05287e-06, No Iterations 13
smoothSolver:  Solving for Uy, Initial residual = 0.0215134, Final residual = 6.04922e-06, No Iterations 15
GAMG:  Solving for p, Initial residual = 0.0246762, Final residual = 0.000188759, No Iterations 3
time step continuity errors : sum local = 1.59379e-06, global = -9.65154e-19, cumulative = -1.43713e-18
GAMG:  Solving for p, Initial residual = 0.0189758, Final residual = 8.59046e-07, No Iterations 9
time step continuity errors : sum local = 7.2994e-09, global = 2.05968e-19, cumulative = -1.23116e-18
ExecutionTime = 0.09 s  ClockTime = 0 s

Courant Number mean: 0.197872 max: 0.834981
Time = 0.035

PIMPLE: iteration 1
smoothSolver:  Solving for Ux, Initial residual = 0.00751465, Final residual = 6.00568e-06, No Iterations 13
smoothSolver:  Solving for Uy, Initial residual = 0.0156659, Final residual = 7.72757e-06, No Iterations 14
GAMG:  Solving for p, Initial residual = 0.0175464, Final residual = 7.94591e-05, No Iterations 3
time step continuity errors : sum local = 6.49361e-07, global = -7.02276e-19, cumulative = -1.93344e-18
GAMG:  Solving for p, Initial residual = 0.0134814, Final residual = 4.20282e-07, No Iterations 7
time step continuity errors : sum local = 3.80787e-09, global = 1.96125e-19, cumulative = -1.73731e-18
ExecutionTime = 0.09 s  ClockTime = 0 s

Courant Number mean: 0.203114 max: 0.83923
Time = 0.04

PIMPLE: iteration 1
smoothSolver:  Solving for Ux, Initial residual = 0.00557016, Final residual = 7.85589e-06, No Iterations 12
smoothSolver:  Solving for Uy, Initial residual = 0.0116518, Final residual = 5.80478e-06, No Iterations 14
GAMG:  Solving for p, Initial residual = 0.0132486, Final residual = 0.000119867, No Iterations 3
time step continuity errors : sum local = 1.00265e-06, global = 1.23895e-18, cumulative = -4.98363e-19
GAMG:  Solving for p, Initial residual = 0.0101414, Final residual = 7.73297e-07, No Iterations 8
time step continuity errors : sum local = 6.68771e-09, global = 1.47437e-18, cumulative = 9.76003e-19
ExecutionTime = 0.09 s  ClockTime = 0 s

Courant Number mean: 0.20703 max: 0.842142
Time = 0.045

PIMPLE: iteration 1
smoothSolver:  Solving for Ux, Initial residual = 0.0041798, Final residual = 6.04467e-06, No Iterations 12
smoothSolver:  Solving for Uy, Initial residual = 0.00885125, Final residual = 7.66226e-06, No Iterations 13
GAMG:  Solving for p, Initial residual = 0.00978309, Final residual = 9.06632e-05, No Iterations 3
time step continuity errors : sum local = 7.24186e-07, global = 9.7111e-20, cumulative = 1.07311e-18
GAMG:  Solving for p, Initial residual = 0.00744986, Final residual = 3.76719e-07, No Iterations 7
time step continuity errors : sum local = 3.47373e-09, global = 3.90016e-19, cumulative = 1.46313e-18
ExecutionTime = 0.09 s  ClockTime = 0 s

Courant Number mean: 0.209988 max: 0.844189
Time = 0.05

PIMPLE: iteration 1
smoothSolver:  Solving for Ux, Initial residual = 0.00320212, Final residual = 8.06856e-06, No Iterations 11
smoothSolver:  Solving for Uy, Initial residual = 0.00678366, Final residual = 5.90097e-06, No Iterations 13
GAMG:  Solving for p, Initial residual = 0.00749553, Final residual = 2.83688e-05, No Iterations 4
time step continuity errors : sum local = 2.42299e-07, global = -1.1253e-18, cumulative = 3.37833e-19
GAMG:  Solving for p, Initial residual = 0.00574041, Final residual = 5.36774e-07, No Iterations 8
time step continuity errors : sum local = 4.69119e-09, global = 1.09022e-19, cumulative = 4.46856e-19
ExecutionTime = 0.09 s  ClockTime = 0 s

Courant Number mean: 0.212286 max: 0.845658
Time = 0.055

PIMPLE: iteration 1
smoothSolver:  Solving for Ux, Initial residual = 0.00247241, Final residual = 6.32075e-06, No Iterations 11
smoothSolver:  Solving for Uy, Initial residual = 0.00525802, Final residual = 7.9054e-06, No Iterations 12
GAMG:  Solving for p, Initial residual = 0.00584604, Final residual = 2.15193e-05, No Iterations 4
time step continuity errors : sum local = 1.84417e-07, global = -9.6838e-19, cumulative = -5.21524e-19
GAMG:  Solving for p, Initial residual = 0.00449285, Final residual = 6.89696e-07, No Iterations 7
time step continuity errors : sum local = 6.22242e-09, global = -1.45468e-18, cumulative = -1.9762e-18
ExecutionTime = 0.09 s  ClockTime = 0 s

Courant Number mean: 0.214085 max: 0.846734
Time = 0.06

PIMPLE: iteration 1
smoothSolver:  Solving for Ux, Initial residual = 0.00191617, Final residual = 8.51055e-06, No Iterations 10
smoothSolver:  Solving for Uy, Initial residual = 0.00409718, Final residual = 6.17455e-06, No Iterations 12
GAMG:  Solving for p, Initial residual = 0.0044878, Final residual = 2.18679e-05, No Iterations 4
time step continuity errors : sum local = 1.85094e-07, global = 1.90996e-19, cumulative = -1.78521e-18
GAMG:  Solving for p, Initial residual = 0.0034407, Final residual = 7.10359e-07, No Iterations 7
time step continuity errors : sum local = 6.36561e-09, global = 4.90022e-19, cumulative = -1.29519e-18
ExecutionTime = 0.09 s  ClockTime = 0 s

Courant Number mean: 0.215478 max: 0.847527
Time = 0.065

PIMPLE: iteration 1
smoothSolver:  Solving for Ux, Initial residual = 0.00149528, Final residual = 6.69561e-06, No Iterations 10
smoothSolver:  Solving for Uy, Initial residual = 0.00320773, Final residual = 8.34364e-06, No Iterations 11
GAMG:  Solving for p, Initial residual = 0.00346937, Final residual = 2.00004e-05, No Iterations 4
time step continuity errors : sum local = 1.67332e-07, global = 2.15232e-19, cumulative = -1.07995e-18
GAMG:  Solving for p, Initial residual = 0.00265191, Final residual = 5.37573e-07, No Iterations 7
time step continuity errors : sum local = 4.88146e-09, global = 7.61833e-20, cumulative = -1.00377e-18
ExecutionTime = 0.09 s  ClockTime = 0 s

Courant Number mean: 0.216573 max: 0.848119
Time = 0.07

PIMPLE: iteration 1
smoothSolver:  Solving for Ux, Initial residual = 0.00117311, Final residual = 9.06499e-06, No Iterations 9
smoothSolver:  Solving for Uy, Initial residual = 0.00252035, Final residual = 6.56242e-06, No Iterations 11
GAMG:  Solving for p, Initial residual = 0.00269024, Final residual = 1.9302e-05, No Iterations 4
time step continuity errors : sum local = 1.5904e-07, global = -1.04721e-19, cumulative = -1.10849e-18
GAMG:  Solving for p, Initial residual = 0.00204747, Final residual = 5.21888e-07, No Iterations 7
time step continuity errors : sum local = 4.7066e-09, global = -5.11942e-19, cumulative = -1.62043e-18
ExecutionTime = 0.1 s  ClockTime = 0 s

Courant Number mean: 0.217427 max: 0.848565
Time = 0.075

PIMPLE: iteration 1
smoothSolver:  Solving for Ux, Initial residual = 0.00092362, Final residual = 7.16259e-06, No Iterations 9
smoothSolver:  Solving for Uy, Initial residual = 0.00198495, Final residual = 8.90974e-06, No Iterations 10
GAMG:  Solving for p, Initial residual = 0.00208803, Final residual = 1.71981e-05, No Iterations 4
time step continuity errors : sum local = 1.40575e-07, global = -3.63959e-19, cumulative = -1.98439e-18
GAMG:  Solving for p, Initial residual = 0.0015846, Final residual = 4.23302e-07, No Iterations 7
time step continuity errors : sum local = 3.85328e-09, global = -8.27842e-19, cumulative = -2.81224e-18
ExecutionTime = 0.1 s  ClockTime = 0 s

Courant Number mean: 0.218096 max: 0.848903
Time = 0.08

PIMPLE: iteration 1
smoothSolver:  Solving for Ux, Initial residual = 0.000727989, Final residual = 9.72425e-06, No Iterations 8
smoothSolver:  Solving for Uy, Initial residual = 0.00156739, Final residual = 7.03813e-06, No Iterations 10
GAMG:  Solving for p, Initial residual = 0.00162364, Final residual = 1.57954e-05, No Iterations 4
time step continuity errors : sum local = 1.26661e-07, global = 5.8705e-19, cumulative = -2.22519e-18
GAMG:  Solving for p, Initial residual = 0.00122759, Final residual = 4.26344e-07, No Iterations 7
time step continuity errors : sum local = 3.8035e-09, global = -5.83659e-19, cumulative = -2.80884e-18
ExecutionTime = 0.1 s  ClockTime = 0 s

Courant Number mean: 0.218624 max: 0.849162
Time = 0.085

PIMPLE: iteration 1
smoothSolver:  Solving for Ux, Initial residual = 0.000575523, Final residual = 7.71161e-06, No Iterations 8
smoothSolver:  Solving for Uy, Initial residual = 0.00123837, Final residual = 9.5783e-06, No Iterations 9
GAMG:  Solving for p, Initial residual = 0.00126397, Final residual = 4.21267e-06, No Iterations 5
time step continuity errors : sum local = 3.54492e-08, global = -1.24243e-19, cumulative = -2.93309e-18
GAMG:  Solving for p, Initial residual = 0.000961864, Final residual = 3.55816e-07, No Iterations 7
time step continuity errors : sum local = 3.21695e-09, global = 2.79173e-19, cumulative = -2.65391e-18
ExecutionTime = 0.1 s  ClockTime = 0 s

Courant Number mean: 0.21904 max: 0.849359
Time = 0.09

PIMPLE: iteration 1
smoothSolver:  Solving for Ux, Initial residual = 0.000455304, Final residual = 6.11485e-06, No Iterations 8
smoothSolver:  Solving for Uy, Initial residual = 0.000981272, Final residual = 7.58709e-06, No Iterations 9
GAMG:  Solving for p, Initial residual = 0.00102301, Final residual = 3.55526e-06, No Iterations 5
time step continuity errors : sum local = 3.03872e-08, global = 1.05035e-18, cumulative = -1.60356e-18
GAMG:  Solving for p, Initial residual = 0.000780539, Final residual = 9.42166e-07, No Iterations 6
time step continuity errors : sum local = 8.3316e-09, global = 1.10627e-18, cumulative = -4.97288e-19
ExecutionTime = 0.1 s  ClockTime = 0 s

Courant Number mean: 0.219368 max: 0.849512
Time = 0.095

PIMPLE: iteration 1
smoothSolver:  Solving for Ux, Initial residual = 0.000360374, Final residual = 8.32286e-06, No Iterations 7
smoothSolver:  Solving for Uy, Initial residual = 0.000777995, Final residual = 6.01548e-06, No Iterations 9
GAMG:  Solving for p, Initial residual = 0.000791427, Final residual = 3.39587e-06, No Iterations 5
time step continuity errors : sum local = 2.77829e-08, global = -1.27601e-18, cumulative = -1.7733e-18
GAMG:  Solving for p, Initial residual = 0.000601772, Final residual = 9.09294e-07, No Iterations 6
time step continuity errors : sum local = 7.70101e-09, global = 8.36776e-19, cumulative = -9.36521e-19
ExecutionTime = 0.1 s  ClockTime = 0 s

Courant Number mean: 0.219627 max: 0.849631
Time = 0.1

PIMPLE: iteration 1
smoothSolver:  Solving for Ux, Initial residual = 0.000286339, Final residual = 6.62389e-06, No Iterations 7
smoothSolver:  Solving for Uy, Initial residual = 0.000616543, Final residual = 8.20377e-06, No Iterations 8
GAMG:  Solving for p, Initial residual = 0.000620659, Final residual = 2.65024e-06, No Iterations 5
time step continuity errors : sum local = 2.21945e-08, global = 1.18676e-18, cumulative = 2.50235e-19
GAMG:  Solving for p, Initial residual = 0.000470908, Final residual = 7.19297e-07, No Iterations 6
time step continuity errors : sum local = 6.23485e-09, global = -1.12604e-18, cumulative = -8.75806e-19
ExecutionTime = 0.11 s  ClockTime = 0 s

Courant Number mean: 0.219831 max: 0.849722
Time = 0.105

PIMPLE: iteration 1
smoothSolver:  Solving for Ux, Initial residual = 0.000227255, Final residual = 9.0197e-06, No Iterations 6
smoothSolver:  Solving for Uy, Initial residual = 0.000490356, Final residual = 6.52569e-06, No Iterations 8
GAMG:  Solving for p, Initial residual = 0.000485464, Final residual = 2.45726e-06, No Iterations 5
time step continuity errors : sum local = 1.93992e-08, global = -2.97785e-20, cumulative = -9.05584e-19
GAMG:  Solving for p, Initial residual = 0.00036756, Final residual = 7.14252e-07, No Iterations 6
time step continuity errors : sum local = 5.75861e-09, global = 5.19056e-19, cumulative = -3.86529e-19
ExecutionTime = 0.11 s  ClockTime = 0 s

Courant Number mean: 0.219991 max: 0.849794
Time = 0.11

PIMPLE: iteration 1
smoothSolver:  Solving for Ux, Initial residual = 0.000181464, Final residual = 7.21012e-06, No Iterations 6
smoothSolver:  Solving for Uy, Initial residual = 0.000389146, Final residual = 8.90343e-06, No Iterations 7
GAMG:  Solving for p, Initial residual = 0.000378614, Final residual = 1.83726e-06, No Iterations 5
time step continuity errors : sum local = 1.51903e-08, global = 6.9326e-19, cumulative = 3.06731e-19
GAMG:  Solving for p, Initial residual = 0.000285453, Final residual = 5.22248e-07, No Iterations 6
time step continuity errors : sum local = 4.44415e-09, global = -7.22542e-19, cumulative = -4.15811e-19
ExecutionTime = 0.11 s  ClockTime = 0 s

Courant Number mean: 0.220118 max: 0.849849
Time = 0.115

PIMPLE: iteration 1
smoothSolver:  Solving for Ux, Initial residual = 0.000144373, Final residual = 9.82546e-06, No Iterations 5
smoothSolver:  Solving for Uy, Initial residual = 0.000310748, Final residual = 7.1118e-06, No Iterations 7
GAMG:  Solving for p, Initial residual = 0.000298545, Final residual = 1.48773e-06, No Iterations 5
time step continuity errors : sum local = 1.15264e-08, global = -8.60268e-19, cumulative = -1.27608e-18
GAMG:  Solving for p, Initial residual = 0.000225717, Final residual = 4.10539e-07, No Iterations 6
time step continuity errors : sum local = 3.14802e-09, global = 1.18039e-19, cumulative = -1.15804e-18
ExecutionTime = 0.11 s  ClockTime = 0 s

Courant Number mean: 0.220218 max: 0.849893
Time = 0.12

PIMPLE: iteration 1
smoothSolver:  Solving for Ux, Initial residual = 0.000116005, Final residual = 7.90683e-06, No Iterations 5
smoothSolver:  Solving for Uy, Initial residual = 0.000247095, Final residual = 9.70879e-06, No Iterations 6
GAMG:  Solving for p, Initial residual = 0.000230818, Final residual = 1.21793e-06, No Iterations 5
time step continuity errors : sum local = 9.96837e-09, global = -1.47569e-19, cumulative = -1.30561e-18
GAMG:  Solving for p, Initial residual = 0.000172631, Final residual = 9.95051e-07, No Iterations 5
time step continuity errors : sum local = 7.97082e-09, global = -3.29549e-19, cumulative = -1.63516e-18
ExecutionTime = 0.11 s  ClockTime = 0 s

Courant Number mean: 0.220297 max: 0.849926
Time = 0.125

PIMPLE: iteration 1
smoothSolver:  Solving for Ux, Initial residual = 9.2622e-05, Final residual = 6.3073e-06, No Iterations 5
smoothSolver:  Solving for Uy, Initial residual = 0.000198372, Final residual = 7.80146e-06, No Iterations 6
GAMG:  Solving for p, Initial residual = 0.000183283, Final residual = 1.01402e-06, No Iterations 5
time step continuity errors : sum local = 7.71911e-09, global = -4.84645e-19, cumulative = -2.1198e-18
GAMG:  Solving for p, Initial residual = 0.00013679, Final residual = 7.57053e-07, No Iterations 5
time step continuity errors : sum local = 5.72222e-09, global = -6.94418e-19, cumulative = -2.81422e-18
ExecutionTime = 0.11 s  ClockTime = 0 s

Courant Number mean: 0.220361 max: 0.849953
Time = 0.13

PIMPLE: iteration 1
smoothSolver:  Solving for Ux, Initial residual = 7.4323e-05, Final residual = 8.66485e-06, No Iterations 4
smoothSolver:  Solving for Uy, Initial residual = 0.000158463, Final residual = 6.23168e-06, No Iterations 6
GAMG:  Solving for p, Initial residual = 0.000148067, Final residual = 5.68641e-07, No Iterations 5
time step continuity errors : sum local = 4.53345e-09, global = 3.4907e-20, cumulative = -2.77931e-18
GAMG:  Solving for p, Initial residual = 0.000113745, Final residual = 3.86319e-07, No Iterations 5
time step continuity errors : sum local = 3.173e-09, global = -6.84492e-19, cumulative = -3.46381e-18
ExecutionTime = 0.11 s  ClockTime = 0 s

Courant Number mean: 0.22041 max: 0.849975
Time = 0.135

PIMPLE: iteration 1
smoothSolver:  Solving for Ux, Initial residual = 6.01469e-05, Final residual = 7.03195e-06, No Iterations 4
smoothSolver:  Solving for Uy, Initial residual = 0.000126732, Final residual = 8.54012e-06, No Iterations 5
GAMG:  Solving for p, Initial residual = 0.000111605, Final residual = 6.23057e-07, No Iterations 5
time step continuity errors : sum local = 4.99868e-09, global = -1.24797e-18, cumulative = -4.71177e-18
GAMG:  Solving for p, Initial residual = 8.2789e-05, Final residual = 4.80323e-07, No Iterations 5
time step continuity errors : sum local = 3.71283e-09, global = 2.01286e-18, cumulative = -2.69891e-18
ExecutionTime = 0.11 s  ClockTime = 0 s

Courant Number mean: 0.22045 max: 0.849991
Time = 0.14

PIMPLE: iteration 1
smoothSolver:  Solving for Ux, Initial residual = 4.83415e-05, Final residual = 9.65979e-06, No Iterations 3
smoothSolver:  Solving for Uy, Initial residual = 0.000102585, Final residual = 6.92322e-06, No Iterations 5
GAMG:  Solving for p, Initial residual = 0.000101996, Final residual = 6.68188e-07, No Iterations 4
time step continuity errors : sum local = 5.8717e-09, global = -4.56438e-19, cumulative = -3.15535e-18
GAMG:  Solving for p, Initial residual = 8.18939e-05, Final residual = 5.41368e-07, No Iterations 4
time step continuity errors : sum local = 4.77863e-09, global = -3.57177e-19, cumulative = -3.51253e-18
ExecutionTime = 0.12 s  ClockTime = 0 s

Courant Number mean: 0.220481 max: 0.850005
Time = 0.145

PIMPLE: iteration 1
smoothSolver:  Solving for Ux, Initial residual = 3.99425e-05, Final residual = 8.01658e-06, No Iterations 3
smoothSolver:  Solving for Uy, Initial residual = 8.20363e-05, Final residual = 9.46289e-06, No Iterations 4
GAMG:  Solving for p, Initial residual = 6.65724e-05, Final residual = 8.39391e-07, No Iterations 4
time step continuity errors : sum local = 6.67072e-09, global = 1.4608e-19, cumulative = -3.36645e-18
GAMG:  Solving for p, Initial residual = 4.95885e-05, Final residual = 5.79931e-07, No Iterations 4
time step continuity errors : sum local = 4.399e-09, global = 1.50878e-18, cumulative = -1.85767e-18
ExecutionTime = 0.12 s  ClockTime = 0 s

Courant Number mean: 0.220505 max: 0.850014
Time = 0.15

PIMPLE: iteration 1
smoothSolver:  Solving for Ux, Initial residual = 3.23575e-05, Final residual = 6.48001e-06, No Iterations 3
smoothSolver:  Solving for Uy, Initial residual = 6.75477e-05, Final residual = 7.81477e-06, No Iterations 4
GAMG:  Solving for p, Initial residual = 5.49308e-05, Final residual = 3.35657e-07, No Iterations 4
time step continuity errors : sum local = 2.98749e-09, global = -4.2666e-19, cumulative = -2.28433e-18
GAMG:  Solving for p, Initial residual = 4.13493e-05, Final residual = 8.46181e-07, No Iterations 3
time step continuity errors : sum local = 7.20316e-09, global = -7.50418e-19, cumulative = -3.03475e-18
ExecutionTime = 0.12 s  ClockTime = 0 s

Courant Number mean: 0.220525 max: 0.850022
Time = 0.155

PIMPLE: iteration 1
smoothSolver:  Solving for Ux, Initial residual = 2.66624e-05, Final residual = 9.1183e-06, No Iterations 2
smoothSolver:  Solving for Uy, Initial residual = 5.46337e-05, Final residual = 6.3215e-06, No Iterations 4
GAMG:  Solving for p, Initial residual = 6.51973e-05, Final residual = 4.64952e-07, No Iterations 4
time step continuity errors : sum local = 3.94996e-09, global = 9.95264e-19, cumulative = -2.03948e-18
GAMG:  Solving for p, Initial residual = 5.72558e-05, Final residual = 4.00521e-07, No Iterations 4
time step continuity errors : sum local = 3.46906e-09, global = 5.00031e-19, cumulative = -1.53945e-18
ExecutionTime = 0.12 s  ClockTime = 0 s

Courant Number mean: 0.22054 max: 0.850029
Time = 0.16

PIMPLE: iteration 1
smoothSolver:  Solving for Ux, Initial residual = 2.22899e-05, Final residual = 7.68842e-06, No Iterations 2
smoothSolver:  Solving for Uy, Initial residual = 4.47636e-05, Final residual = 8.81216e-06, No Iterations 3
GAMG:  Solving for p, Initial residual = 3.67296e-05, Final residual = 8.16816e-07, No Iterations 3
time step continuity errors : sum local = 6.79554e-09, global = 2.19451e-19, cumulative = -1.32e-18
GAMG:  Solving for p, Initial residual = 2.90099e-05, Final residual = 6.47385e-07, No Iterations 3
time step continuity errors : sum local = 5.38736e-09, global = 1.972e-19, cumulative = -1.1228e-18
ExecutionTime = 0.12 s  ClockTime = 0 s

Courant Number mean: 0.220552 max: 0.850034
Time = 0.165

PIMPLE: iteration 1
smoothSolver:  Solving for Ux, Initial residual = 1.87405e-05, Final residual = 6.43201e-06, No Iterations 2
smoothSolver:  Solving for Uy, Initial residual = 3.7016e-05, Final residual = 7.32919e-06, No Iterations 3
GAMG:  Solving for p, Initial residual = 2.97735e-05, Final residual = 6.54544e-07, No Iterations 3
time step continuity errors : sum local = 5.05625e-09, global = 5.45691e-19, cumulative = -5.77111e-19
GAMG:  Solving for p, Initial residual = 2.34953e-05, Final residual = 4.78063e-07, No Iterations 3
time step continuity errors : sum local = 3.91187e-09, global = -2.56426e-20, cumulative = -6.02754e-19
ExecutionTime = 0.12 s  ClockTime = 0 s

Courant Number mean: 0.220563 max: 0.850038
Time = 0.17

PIMPLE: iteration 1
smoothSolver:  Solving for Ux, Initial residual = 1.55403e-05, Final residual = 9.09285e-06, No Iterations 1
smoothSolver:  Solving for Uy, Initial residual = 3.10433e-05, Final residual = 6.14493e-06, No Iterations 3
GAMG:  Solving for p, Initial residual = 5.68226e-05, Final residual = 3.17197e-07, No Iterations 4
time step continuity errors : sum local = 2.97634e-09, global = -2.2094e-19, cumulative = -8.23694e-19
GAMG:  Solving for p, Initial residual = 5.49305e-05, Final residual = 3.15591e-07, No Iterations 4
time step continuity errors : sum local = 2.93711e-09, global = 2.8455e-20, cumulative = -7.95239e-19
ExecutionTime = 0.12 s  ClockTime = 0 s

Courant Number mean: 0.22057 max: 0.850042
Time = 0.175

PIMPLE: iteration 1
smoothSolver:  Solving for Ux, Initial residual = 1.35699e-05, Final residual = 8.04084e-06, No Iterations 1
smoothSolver:  Solving for Uy, Initial residual = 2.58672e-05, Final residual = 8.64194e-06, No Iterations 2
GAMG:  Solving for p, Initial residual = 2.83634e-05, Final residual = 6.73062e-07, No Iterations 3
time step continuity errors : sum local = 5.48052e-09, global = 3.8985e-19, cumulative = -4.05388e-19
GAMG:  Solving for p, Initial residual = 2.55028e-05, Final residual = 6.05181e-07, No Iterations 3
time step continuity errors : sum local = 5.05879e-09, global = -9.276e-19, cumulative = -1.33299e-18
ExecutionTime = 0.12 s  ClockTime = 0 s

Courant Number mean: 0.220576 max: 0.850044
Time = 0.18

PIMPLE: iteration 1
smoothSolver:  Solving for Ux, Initial residual = 1.18441e-05, Final residual = 6.98269e-06, No Iterations 1
smoothSolver:  Solving for Uy, Initial residual = 2.20998e-05, Final residual = 7.45283e-06, No Iterations 2
GAMG:  Solving for p, Initial residual = 2.33866e-05, Final residual = 4.18827e-07, No Iterations 3
time step continuity errors : sum local = 3.71209e-09, global = -7.03931e-20, cumulative = -1.40338e-18
GAMG:  Solving for p, Initial residual = 2.15362e-05, Final residual = 4.3846e-07, No Iterations 3
time step continuity errors : sum local = 3.833e-09, global = 5.27659e-19, cumulative = -8.75723e-19
ExecutionTime = 0.12 s  ClockTime = 0 s

Courant Number mean: 0.220581 max: 0.850046
Time = 0.185

PIMPLE: iteration 1
smoothSolver:  Solving for Ux, Initial residual = 1.02135e-05, Final residual = 6.01854e-06, No Iterations 1
smoothSolver:  Solving for Uy, Initial residual = 1.91677e-05, Final residual = 6.4566e-06, No Iterations 2
GAMG:  Solving for p, Initial residual = 2.11864e-05, Final residual = 5.12082e-07, No Iterations 3
time step continuity errors : sum local = 4.11438e-09, global = 1.18576e-18, cumulative = 3.1004e-19
GAMG:  Solving for p, Initial residual = 1.90859e-05, Final residual = 4.53977e-07, No Iterations 3
time step continuity errors : sum local = 3.77242e-09, global = 9.30826e-19, cumulative = 1.24087e-18
ExecutionTime = 0.12 s  ClockTime = 0 s

Courant Number mean: 0.220585 max: 0.850048
Time = 0.19

PIMPLE: iteration 1
smoothSolver:  Solving for Ux, Initial residual = 8.84625e-06, Final residual = 8.84625e-06, No Iterations 0
smoothSolver:  Solving for Uy, Initial residual = 1.65017e-05, Final residual = 9.51719e-06, No Iterations 1
GAMG:  Solving for p, Initial residual = 3.50337e-05, Final residual = 7.27402e-07, No Iterations 3
time step continuity errors : sum local = 6.46352e-09, global = -1.19279e-19, cumulative = 1.12159e-18
GAMG:  Solving for p, Initial residual = 3.38421e-05, Final residual = 7.35728e-07, No Iterations 3
time step continuity errors : sum local = 6.43382e-09, global = -3.37159e-19, cumulative = 7.84428e-19
ExecutionTime = 0.12 s  ClockTime = 0 s

Courant Number mean: 0.220588 max: 0.850049
Time = 0.195

PIMPLE: iteration 1
smoothSolver:  Solving for Ux, Initial residual = 8.56485e-06, Final residual = 8.56485e-06, No Iterations 0
smoothSolver:  Solving for Uy, Initial residual = 1.43455e-05, Final residual = 8.20669e-06, No Iterations 1
GAMG:  Solving for p, Initial residual = 2.94427e-05, Final residual = 7.02867e-07, No Iterations 3
time step continuity errors : sum local = 5.90955e-09, global = 2.34837e-19, cumulative = 1.01926e-18
GAMG:  Solving for p, Initial residual = 2.94397e-05, Final residual = 6.83302e-07, No Iterations 3
time step continuity errors : sum local = 5.82645e-09, global = 9.96008e-19, cumulative = 2.01527e-18
ExecutionTime = 0.13 s  ClockTime = 0 s

Courant Number mean: 0.22059 max: 0.85005
Time = 0.2

PIMPLE: iteration 1
smoothSolver:  Solving for Ux, Initial residual = 7.87803e-06, Final residual = 7.87803e-06, No Iterations 0
smoothSolver:  Solving for Uy, Initial residual = 1.30855e-05, Final residual = 7.4827e-06, No Iterations 1
GAMG:  Solving for p, Initial residual = 2.68178e-05, Final residual = 5.83786e-07, No Iterations 3
time step continuity errors : sum local = 5.08518e-09, global = 5.03174e-19, cumulative = 2.51845e-18
GAMG:  Solving for p, Initial residual = 2.7017e-05, Final residual = 6.05007e-07, No Iterations 3
time step continuity errors : sum local = 5.23634e-09, global = 1.18924e-18, cumulative = 3.70768e-18
ExecutionTime = 0.13 s  ClockTime = 0 s

Courant Number mean: 0.220592 max: 0.850051
Time = 0.205

PIMPLE: iteration 1
smoothSolver:  Solving for Ux, Initial residual = 7.27313e-06, Final residual = 7.27313e-06, No Iterations 0
smoothSolver:  Solving for Uy, Initial residual = 1.19287e-05, Final residual = 6.80561e-06, No Iterations 1
GAMG:  Solving for p, Initial residual = 2.47097e-05, Final residual = 5.76847e-07, No Iterations 3
time step continuity errors : sum local = 4.90686e-09, global = -2.57253e-19, cumulative = 3.45043e-18
GAMG:  Solving for p, Initial residual = 2.4804e-05, Final residual = 5.74891e-07, No Iterations 3
time step continuity errors : sum local = 4.92121e-09, global = 1.10561e-18, cumulative = 4.55604e-18
ExecutionTime = 0.13 s  ClockTime = 0 s

Courant Number mean: 0.220594 max: 0.850051
Time = 0.21

PIMPLE: iteration 1
smoothSolver:  Solving for Ux, Initial residual = 6.71037e-06, Final residual = 6.71037e-06, No Iterations 0
smoothSolver:  Solving for Uy, Initial residual = 1.08656e-05, Final residual = 6.19711e-06, No Iterations 1
GAMG:  Solving for p, Initial residual = 2.25088e-05, Final residual = 5.0428e-07, No Iterations 3
time step continuity errors : sum local = 4.35482e-09, global = 5.14258e-19, cumulative = 5.0703e-18
GAMG:  Solving for p, Initial residual = 2.27093e-05, Final residual = 5.1819e-07, No Iterations 3
time step continuity errors : sum local = 4.46393e-09, global = -6.09467e-19, cumulative = 4.46083e-18
ExecutionTime = 0.13 s  ClockTime = 0 s

Courant Number mean: 0.220595 max: 0.850052
Time = 0.215

PIMPLE: iteration 1
smoothSolver:  Solving for Ux, Initial residual = 6.18432e-06, Final residual = 6.18432e-06, No Iterations 0
smoothSolver:  Solving for Uy, Initial residual = 9.92943e-06, Final residual = 9.92943e-06, No Iterations 0
GAMG:  Solving for p, Initial residual = 2.12487e-06, Final residual = 5.71318e-07, No Iterations 1
time step continuity errors : sum local = 4.97544e-09, global = 1.41034e-19, cumulative = 4.60187e-18
GAMG:  Solving for p, Initial residual = 8.77184e-07, Final residual = 8.77184e-07, No Iterations 0
time step continuity errors : sum local = 7.27743e-09, global = 7.9765e-19, cumulative = 5.39952e-18
ExecutionTime = 0.13 s  ClockTime = 0 s

Courant Number mean: 0.220596 max: 0.850052
Time = 0.22

PIMPLE: iteration 1
smoothSolver:  Solving for Ux, Initial residual = 5.54224e-06, Final residual = 5.54224e-06, No Iterations 0
smoothSolver:  Solving for Uy, Initial residual = 1.00717e-05, Final residual = 5.83065e-06, No Iterations 1
GAMG:  Solving for p, Initial residual = 2.17084e-05, Final residual = 4.87749e-07, No Iterations 3
time step continuity errors : sum local = 4.2175e-09, global = -5.131e-19, cumulative = 4.88642e-18
GAMG:  Solving for p, Initial residual = 2.06962e-05, Final residual = 4.74099e-07, No Iterations 3
time step continuity errors : sum local = 4.07535e-09, global = -1.35823e-19, cumulative = 4.75059e-18
ExecutionTime = 0.13 s  ClockTime = 0 s

Courant Number mean: 0.220598 max: 0.850053
Time = 0.225

PIMPLE: iteration 1
smoothSolver:  Solving for Ux, Initial residual = 5.34668e-06, Final residual = 5.34668e-06, No Iterations 0
smoothSolver:  Solving for Uy, Initial residual = 8.65087e-06, Final residual = 8.65087e-06, No Iterations 0
GAMG:  Solving for p, Initial residual = 1.88869e-06, Final residual = 5.03503e-07, No Iterations 1
time step continuity errors : sum local = 4.38193e-09, global = -3.719e-19, cumulative = 4.37869e-18
GAMG:  Solving for p, Initial residual = 7.36519e-07, Final residual = 7.36519e-07, No Iterations 0
time step continuity errors : sum local = 6.13564e-09, global = -2.27888e-19, cumulative = 4.15081e-18
ExecutionTime = 0.13 s  ClockTime = 0 s

Courant Number mean: 0.220598 max: 0.850053
Time = 0.23

PIMPLE: iteration 1
smoothSolver:  Solving for Ux, Initial residual = 4.78236e-06, Final residual = 4.78236e-06, No Iterations 0
smoothSolver:  Solving for Uy, Initial residual = 8.78967e-06, Final residual = 8.78967e-06, No Iterations 0
GAMG:  Solving for p, Initial residual = 1.2363e-06, Final residual = 3.48165e-07, No Iterations 1
time step continuity errors : sum local = 3.03894e-09, global = 5.53218e-19, cumulative = 4.70402e-18
GAMG:  Solving for p, Initial residual = 3.6409e-07, Final residual = 3.6409e-07, No Iterations 0
time step continuity errors : sum local = 3.05607e-09, global = 3.68344e-19, cumulative = 5.07237e-18
ExecutionTime = 0.13 s  ClockTime = 0 s

Courant Number mean: 0.220599 max: 0.850053
Time = 0.235

PIMPLE: iteration 1
smoothSolver:  Solving for Ux, Initial residual = 4.31804e-06, Final residual = 4.31804e-06, No Iterations 0
smoothSolver:  Solving for Uy, Initial residual = 8.72081e-06, Final residual = 8.72081e-06, No Iterations 0
GAMG:  Solving for p, Initial residual = 7.68333e-07, Final residual = 7.68333e-07, No Iterations 0
time step continuity errors : sum local = 5.99342e-09, global = -8.49514e-19, cumulative = 4.22285e-18
GAMG:  Solving for p, Initial residual = 1.36403e-06, Final residual = 3.65902e-07, No Iterations 1
time step continuity errors : sum local = 2.79592e-09, global = -6.45035e-19, cumulative = 3.57782e-18
ExecutionTime = 0.13 s  ClockTime = 0 s

Courant Number mean: 0.2206 max: 0.850053
Time = 0.24

PIMPLE: iteration 1
smoothSolver:  Solving for Ux, Initial residual = 4.10948e-06, Final residual = 4.10948e-06, No Iterations 0
smoothSolver:  Solving for Uy, Initial residual = 8.1361e-06, Final residual = 8.1361e-06, No Iterations 0
GAMG:  Solving for p, Initial residual = 4.73026e-07, Final residual = 4.73026e-07, No Iterations 0
time step continuity errors : sum local = 3.49379e-09, global = 3.17306e-19, cumulative = 3.89512e-18
GAMG:  Solving for p, Initial residual = 7.71618e-07, Final residual = 7.71618e-07, No Iterations 0
time step continuity errors : sum local = 5.74104e-09, global = 1.37949e-18, cumulative = 5.27461e-18
ExecutionTime = 0.13 s  ClockTime = 0 s

Courant Number mean: 0.220601 max: 0.850053
Time = 0.245

PIMPLE: iteration 1
smoothSolver:  Solving for Ux, Initial residual = 3.94102e-06, Final residual = 3.94102e-06, No Iterations 0
smoothSolver:  Solving for Uy, Initial residual = 7.74897e-06, Final residual = 7.74897e-06, No Iterations 0
GAMG:  Solving for p, Initial residual = 1.33941e-06, Final residual = 3.96102e-07, No Iterations 1
time step continuity errors : sum local = 3.0273e-09, global = 3.31617e-19, cumulative = 5.60623e-18
GAMG:  Solving for p, Initial residual = 3.87e-07, Final residual = 3.87e-07, No Iterations 0
time step continuity errors : sum local = 2.95096e-09, global = -2.9001e-19, cumulative = 5.31622e-18
ExecutionTime = 0.13 s  ClockTime = 0 s

Courant Number mean: 0.220601 max: 0.850053
Time = 0.25

PIMPLE: iteration 1
smoothSolver:  Solving for Ux, Initial residual = 3.69319e-06, Final residual = 3.69319e-06, No Iterations 0
smoothSolver:  Solving for Uy, Initial residual = 7.31926e-06, Final residual = 7.31926e-06, No Iterations 0
GAMG:  Solving for p, Initial residual = 5.84667e-07, Final residual = 5.84667e-07, No Iterations 0
time step continuity errors : sum local = 4.42887e-09, global = -1.45757e-18, cumulative = 3.85864e-18
GAMG:  Solving for p, Initial residual = 9.30213e-07, Final residual = 9.30213e-07, No Iterations 0
time step continuity errors : sum local = 7.02065e-09, global = 7.2461e-19, cumulative = 4.58326e-18
ExecutionTime = 0.13 s  ClockTime = 0 s

Courant Number mean: 0.220602 max: 0.850054
Time = 0.255

PIMPLE: iteration 1
smoothSolver:  Solving for Ux, Initial residual = 3.53476e-06, Final residual = 3.53476e-06, No Iterations 0
smoothSolver:  Solving for Uy, Initial residual = 6.98047e-06, Final residual = 6.98047e-06, No Iterations 0
GAMG:  Solving for p, Initial residual = 1.5157e-06, Final residual = 4.28984e-07, No Iterations 1
time step continuity errors : sum local = 3.29575e-09, global = 9.05763e-20, cumulative = 4.67383e-18
GAMG:  Solving for p, Initial residual = 3.25281e-07, Final residual = 3.25281e-07, No Iterations 0
time step continuity errors : sum local = 2.51526e-09, global = 2.6263e-19, cumulative = 4.93646e-18
ExecutionTime = 0.14 s  ClockTime = 0 s

Courant Number mean: 0.220602 max: 0.850054
Time = 0.26

PIMPLE: iteration 1
smoothSolver:  Solving for Ux, Initial residual = 3.2274e-06, Final residual = 3.2274e-06, No Iterations 0
smoothSolver:  Solving for Uy, Initial residual = 6.67316e-06, Final residual = 6.67316e-06, No Iterations 0
GAMG:  Solving for p, Initial residual = 3.62615e-07, Final residual = 3.62615e-07, No Iterations 0
time step continuity errors : sum local = 2.79625e-09, global = -6.05083e-19, cumulative = 4.33138e-18
GAMG:  Solving for p, Initial residual = 5.52503e-07, Final residual = 5.52503e-07, No Iterations 0
time step continuity errors : sum local = 4.22537e-09, global = -1.17245e-18, cumulative = 3.15893e-18
ExecutionTime = 0.14 s  ClockTime = 0 s

Courant Number mean: 0.220603 max: 0.850054
Time = 0.265

PIMPLE: iteration 1
smoothSolver:  Solving for Ux, Initial residual = 3.09028e-06, Final residual = 3.09028e-06, No Iterations 0
smoothSolver:  Solving for Uy, Initial residual = 6.36658e-06, Final residual = 6.36658e-06, No Iterations 0
GAMG:  Solving for p, Initial residual = 9.49876e-07, Final residual = 9.49876e-07, No Iterations 0
time step continuity errors : sum local = 7.21606e-09, global = 4.65537e-19, cumulative = 3.62447e-18
GAMG:  Solving for p, Initial residual = 1.45203e-06, Final residual = 4.13238e-07, No Iterations 1
time step continuity errors : sum local = 3.21663e-09, global = -5.14175e-19, cumulative = 3.11029e-18
ExecutionTime = 0.14 s  ClockTime = 0 s

Courant Number mean: 0.220604 max: 0.850054
Time = 0.27

PIMPLE: iteration 1
smoothSolver:  Solving for Ux, Initial residual = 2.88129e-06, Final residual = 2.88129e-06, No Iterations 0
smoothSolver:  Solving for Uy, Initial residual = 5.96286e-06, Final residual = 5.96286e-06, No Iterations 0
GAMG:  Solving for p, Initial residual = 3.00835e-07, Final residual = 3.00835e-07, No Iterations 0
time step continuity errors : sum local = 2.35304e-09, global = -1.1808e-18, cumulative = 1.92949e-18
GAMG:  Solving for p, Initial residual = 3.20181e-07, Final residual = 3.20181e-07, No Iterations 0
time step continuity errors : sum local = 2.48827e-09, global = -5.70258e-19, cumulative = 1.35924e-18
ExecutionTime = 0.14 s  ClockTime = 0 s

Courant Number mean: 0.220604 max: 0.850055
Time = 0.275

PIMPLE: iteration 1
smoothSolver:  Solving for Ux, Initial residual = 2.75395e-06, Final residual = 2.75395e-06, No Iterations 0
smoothSolver:  Solving for Uy, Initial residual = 5.68614e-06, Final residual = 5.68614e-06, No Iterations 0
GAMG:  Solving for p, Initial residual = 5.17761e-07, Final residual = 5.17761e-07, No Iterations 0
time step continuity errors : sum local = 3.96606e-09, global = -5.01271e-19, cumulative = 8.57964e-19
GAMG:  Solving for p, Initial residual = 8.28538e-07, Final residual = 8.28538e-07, No Iterations 0
time step continuity errors : sum local = 6.29935e-09, global = 3.93324e-19, cumulative = 1.25129e-18
ExecutionTime = 0.14 s  ClockTime = 0 s

Courant Number mean: 0.220605 max: 0.850055
Time = 0.28

PIMPLE: iteration 1
smoothSolver:  Solving for Ux, Initial residual = 2.63224e-06, Final residual = 2.63224e-06, No Iterations 0
smoothSolver:  Solving for Uy, Initial residual = 5.42639e-06, Final residual = 5.42639e-06, No Iterations 0
GAMG:  Solving for p, Initial residual = 1.33288e-06, Final residual = 3.64066e-07, No Iterations 1
time step continuity errors : sum local = 2.77834e-09, global = -5.36261e-19, cumulative = 7.15028e-19
GAMG:  Solving for p, Initial residual = 2.76099e-07, Final residual = 2.76099e-07, No Iterations 0
time step continuity errors : sum local = 2.11167e-09, global = -5.70755e-20, cumulative = 6.57952e-19
ExecutionTime = 0.14 s  ClockTime = 0 s

Courant Number mean: 0.220605 max: 0.850055
Time = 0.285

PIMPLE: iteration 1
smoothSolver:  Solving for Ux, Initial residual = 2.4313e-06, Final residual = 2.4313e-06, No Iterations 0
smoothSolver:  Solving for Uy, Initial residual = 5.0978e-06, Final residual = 5.0978e-06, No Iterations 0
GAMG:  Solving for p, Initial residual = 3.36555e-07, Final residual = 3.36555e-07, No Iterations 0
time step continuity errors : sum local = 2.56135e-09, global = -2.90589e-19, cumulative = 3.67364e-19
GAMG:  Solving for p, Initial residual = 4.71723e-07, Final residual = 4.71723e-07, No Iterations 0
time step continuity errors : sum local = 3.58018e-09, global = -1.22216e-18, cumulative = -8.54796e-19
ExecutionTime = 0.14 s  ClockTime = 0 s

Courant Number mean: 0.220605 max: 0.850055
Time = 0.29

PIMPLE: iteration 1
smoothSolver:  Solving for Ux, Initial residual = 2.32456e-06, Final residual = 2.32456e-06, No Iterations 0
smoothSolver:  Solving for Uy, Initial residual = 4.8674e-06, Final residual = 4.8674e-06, No Iterations 0
GAMG:  Solving for p, Initial residual = 7.3238e-07, Final residual = 7.3238e-07, No Iterations 0
time step continuity errors : sum local = 5.54272e-09, global = -3.88279e-19, cumulative = -1.24307e-18
GAMG:  Solving for p, Initial residual = 1.07642e-06, Final residual = 2.88755e-07, No Iterations 1
time step continuity errors : sum local = 2.22824e-09, global = -1.8413e-19, cumulative = -1.4272e-18
ExecutionTime = 0.14 s  ClockTime = 0 s

Courant Number mean: 0.220606 max: 0.850055
Time = 0.295

PIMPLE: iteration 1
smoothSolver:  Solving for Ux, Initial residual = 2.17118e-06, Final residual = 2.17118e-06, No Iterations 0
smoothSolver:  Solving for Uy, Initial residual = 4.57091e-06, Final residual = 4.57091e-06, No Iterations 0
GAMG:  Solving for p, Initial residual = 2.5753e-07, Final residual = 2.5753e-07, No Iterations 0
time step continuity errors : sum local = 1.99323e-09, global = 6.00616e-19, cumulative = -8.26589e-19
GAMG:  Solving for p, Initial residual = 4.11516e-07, Final residual = 4.11516e-07, No Iterations 0
time step continuity errors : sum local = 3.15215e-09, global = -6.07812e-19, cumulative = -1.4344e-18
ExecutionTime = 0.14 s  ClockTime = 0 s

Courant Number mean: 0.220606 max: 0.850055
Time = 0.3

PIMPLE: iteration 1
smoothSolver:  Solving for Ux, Initial residual = 2.07346e-06, Final residual = 2.07346e-06, No Iterations 0
smoothSolver:  Solving for Uy, Initial residual = 4.36094e-06, Final residual = 4.36094e-06, No Iterations 0
GAMG:  Solving for p, Initial residual = 6.81774e-07, Final residual = 6.81774e-07, No Iterations 0
time step continuity errors : sum local = 5.18615e-09, global = 6.05496e-19, cumulative = -8.28905e-19
GAMG:  Solving for p, Initial residual = 9.87708e-07, Final residual = 9.87708e-07, No Iterations 0
time step continuity errors : sum local = 7.48866e-09, global = -3.64704e-19, cumulative = -1.19361e-18
ExecutionTime = 0.14 s  ClockTime = 0 s

Courant Number mean: 0.220607 max: 0.850055
Time = 0.305

PIMPLE: iteration 1
smoothSolver:  Solving for Ux, Initial residual = 1.98026e-06, Final residual = 1.98026e-06, No Iterations 0
smoothSolver:  Solving for Uy, Initial residual = 4.16292e-06, Final residual = 4.16292e-06, No Iterations 0
GAMG:  Solving for p, Initial residual = 1.40447e-06, Final residual = 2.71362e-07, No Iterations 1
time step continuity errors : sum local = 2.04841e-09, global = 1.32961e-18, cumulative = 1.36001e-19
GAMG:  Solving for p, Initial residual = 4.35702e-07, Final residual = 4.35702e-07, No Iterations 0
time step continuity errors : sum local = 3.27235e-09, global = -8.58862e-19, cumulative = -7.2286e-19
ExecutionTime = 0.14 s  ClockTime = 0 s

Courant Number mean: 0.220607 max: 0.850056
Time = 0.31

PIMPLE: iteration 1
smoothSolver:  Solving for Ux, Initial residual = 1.83057e-06, Final residual = 1.83057e-06, No Iterations 0
smoothSolver:  Solving for Uy, Initial residual = 3.89762e-06, Final residual = 3.89762e-06, No Iterations 0
GAMG:  Solving for p, Initial residual = 8.22132e-07, Final residual = 8.22132e-07, No Iterations 0
time step continuity errors : sum local = 6.17468e-09, global = -2.27723e-19, cumulative = -9.50583e-19
GAMG:  Solving for p, Initial residual = 1.15352e-06, Final residual = 1.17763e-07, No Iterations 1
time step continuity errors : sum local = 9.11867e-10, global = -2.48981e-19, cumulative = -1.19956e-18
ExecutionTime = 0.15 s  ClockTime = 0 s

Courant Number mean: 0.220607 max: 0.850056
Time = 0.315

PIMPLE: iteration 1
smoothSolver:  Solving for Ux, Initial residual = 1.76975e-06, Final residual = 1.76975e-06, No Iterations 0
smoothSolver:  Solving for Uy, Initial residual = 3.68966e-06, Final residual = 3.68966e-06, No Iterations 0
GAMG:  Solving for p, Initial residual = 6.08905e-07, Final residual = 6.08905e-07, No Iterations 0
time step continuity errors : sum local = 4.60828e-09, global = 1.70813e-19, cumulative = -1.02875e-18
GAMG:  Solving for p, Initial residual = 1.12315e-06, Final residual = 9.43994e-08, No Iterations 1
time step continuity errors : sum local = 7.22421e-10, global = -3.80834e-19, cumulative = -1.40959e-18
ExecutionTime = 0.15 s  ClockTime = 0 s

Courant Number mean: 0.220608 max: 0.850056
Time = 0.32

PIMPLE: iteration 1
smoothSolver:  Solving for Ux, Initial residual = 1.63924e-06, Final residual = 1.63924e-06, No Iterations 0
smoothSolver:  Solving for Uy, Initial residual = 3.508e-06, Final residual = 3.508e-06, No Iterations 0
GAMG:  Solving for p, Initial residual = 3.43011e-07, Final residual = 3.43011e-07, No Iterations 0
time step continuity errors : sum local = 2.58099e-09, global = 6.04338e-19, cumulative = -8.05248e-19
GAMG:  Solving for p, Initial residual = 6.17895e-07, Final residual = 6.17895e-07, No Iterations 0
time step continuity errors : sum local = 4.64456e-09, global = 2.76278e-19, cumulative = -5.28969e-19
ExecutionTime = 0.15 s  ClockTime = 0 s

Courant Number mean: 0.220608 max: 0.850056
Time = 0.325

PIMPLE: iteration 1
smoothSolver:  Solving for Ux, Initial residual = 1.56355e-06, Final residual = 1.56355e-06, No Iterations 0
smoothSolver:  Solving for Uy, Initial residual = 3.34641e-06, Final residual = 3.34641e-06, No Iterations 0
GAMG:  Solving for p, Initial residual = 9.09952e-07, Final residual = 9.09952e-07, No Iterations 0
time step continuity errors : sum local = 6.8385e-09, global = 7.02938e-19, cumulative = 1.73969e-19
GAMG:  Solving for p, Initial residual = 1.18892e-06, Final residual = 2.2598e-07, No Iterations 1
time step continuity errors : sum local = 1.7037e-09, global = 2.18789e-19, cumulative = 3.92758e-19
ExecutionTime = 0.15 s  ClockTime = 0 s

Courant Number mean: 0.220608 max: 0.850056
Time = 0.33

PIMPLE: iteration 1
smoothSolver:  Solving for Ux, Initial residual = 1.48054e-06, Final residual = 1.48054e-06, No Iterations 0
smoothSolver:  Solving for Uy, Initial residual = 3.11124e-06, Final residual = 3.11124e-06, No Iterations 0
GAMG:  Solving for p, Initial residual = 5.04957e-07, Final residual = 5.04957e-07, No Iterations 0
time step continuity errors : sum local = 3.80652e-09, global = 7.13857e-20, cumulative = 4.64144e-19
GAMG:  Solving for p, Initial residual = 9.11158e-07, Final residual = 9.11158e-07, No Iterations 0
time step continuity errors : sum local = 6.86365e-09, global = -9.03695e-19, cumulative = -4.39551e-19
ExecutionTime = 0.15 s  ClockTime = 0 s

Courant Number mean: 0.220608 max: 0.850056
Time = 0.335

PIMPLE: iteration 1
smoothSolver:  Solving for Ux, Initial residual = 1.40923e-06, Final residual = 1.40923e-06, No Iterations 0
smoothSolver:  Solving for Uy, Initial residual = 2.96656e-06, Final residual = 2.96656e-06, No Iterations 0
GAMG:  Solving for p, Initial residual = 1.35551e-06, Final residual = 1.0471e-07, No Iterations 1
time step continuity errors : sum local = 7.93926e-10, global = 3.97626e-19, cumulative = -4.19253e-20
GAMG:  Solving for p, Initial residual = 5.72603e-07, Final residual = 5.72603e-07, No Iterations 0
time step continuity errors : sum local = 4.31536e-09, global = -3.57425e-19, cumulative = -3.9935e-19
ExecutionTime = 0.15 s  ClockTime = 0 s

Courant Number mean: 0.220609 max: 0.850056
Time = 0.34

PIMPLE: iteration 1
smoothSolver:  Solving for Ux, Initial residual = 1.32259e-06, Final residual = 1.32259e-06, No Iterations 0
smoothSolver:  Solving for Uy, Initial residual = 2.83516e-06, Final residual = 2.83516e-06, No Iterations 0
GAMG:  Solving for p, Initial residual = 1.14779e-06, Final residual = 7.79297e-08, No Iterations 1
time step continuity errors : sum local = 6.12893e-10, global = -5.86636e-19, cumulative = -9.85987e-19
GAMG:  Solving for p, Initial residual = 3.68406e-07, Final residual = 3.68406e-07, No Iterations 0
time step continuity errors : sum local = 2.79907e-09, global = 1.06111e-18, cumulative = 7.51207e-20
ExecutionTime = 0.15 s  ClockTime = 0 s

Courant Number mean: 0.220609 max: 0.850056
Time = 0.345

PIMPLE: iteration 1
smoothSolver:  Solving for Ux, Initial residual = 1.2587e-06, Final residual = 1.2587e-06, No Iterations 0
smoothSolver:  Solving for Uy, Initial residual = 2.67447e-06, Final residual = 2.67447e-06, No Iterations 0
GAMG:  Solving for p, Initial residual = 7.7092e-07, Final residual = 7.7092e-07, No Iterations 0
time step continuity errors : sum local = 5.82845e-09, global = 1.14945e-18, cumulative = 1.22457e-18
GAMG:  Solving for p, Initial residual = 1.13153e-06, Final residual = 1.11549e-07, No Iterations 1
time step continuity errors : sum local = 8.44794e-10, global = -1.03067e-18, cumulative = 1.93904e-19
ExecutionTime = 0.15 s  ClockTime = 0 s

Courant Number mean: 0.220609 max: 0.850057
Time = 0.35

PIMPLE: iteration 1
smoothSolver:  Solving for Ux, Initial residual = 1.17544e-06, Final residual = 1.17544e-06, No Iterations 0
smoothSolver:  Solving for Uy, Initial residual = 2.51594e-06, Final residual = 2.51594e-06, No Iterations 0
GAMG:  Solving for p, Initial residual = 4.40635e-07, Final residual = 4.40635e-07, No Iterations 0
time step continuity errors : sum local = 3.30771e-09, global = -7.91116e-19, cumulative = -5.97212e-19
GAMG:  Solving for p, Initial residual = 7.92071e-07, Final residual = 7.92071e-07, No Iterations 0
time step continuity errors : sum local = 5.95267e-09, global = -1.22712e-18, cumulative = -1.82433e-18
ExecutionTime = 0.15 s  ClockTime = 0 s

Courant Number mean: 0.220609 max: 0.850057
Time = 0.355

PIMPLE: iteration 1
smoothSolver:  Solving for Ux, Initial residual = 1.11781e-06, Final residual = 1.11781e-06, No Iterations 0
smoothSolver:  Solving for Uy, Initial residual = 2.39984e-06, Final residual = 2.39984e-06, No Iterations 0
GAMG:  Solving for p, Initial residual = 1.13916e-06, Final residual = 1.10607e-07, No Iterations 1
time step continuity errors : sum local = 8.36245e-10, global = -1.15739e-18, cumulative = -2.98173e-18
GAMG:  Solving for p, Initial residual = 5.06511e-07, Final residual = 5.06511e-07, No Iterations 0
time step continuity errors : sum local = 3.81589e-09, global = -1.07616e-19, cumulative = -3.08934e-18
ExecutionTime = 0.15 s  ClockTime = 0 s

Courant Number mean: 0.220609 max: 0.850057
Time = 0.36

PIMPLE: iteration 1
smoothSolver:  Solving for Ux, Initial residual = 1.0733e-06, Final residual = 1.0733e-06, No Iterations 0
smoothSolver:  Solving for Uy, Initial residual = 2.26313e-06, Final residual = 2.26313e-06, No Iterations 0
GAMG:  Solving for p, Initial residual = 1.03866e-06, Final residual = 7.40707e-08, No Iterations 1
time step continuity errors : sum local = 5.68795e-10, global = 1.16004e-18, cumulative = -1.9293e-18
GAMG:  Solving for p, Initial residual = 2.90629e-07, Final residual = 2.90629e-07, No Iterations 0
time step continuity errors : sum local = 2.19871e-09, global = 6.87304e-19, cumulative = -1.242e-18
ExecutionTime = 0.15 s  ClockTime = 0 s

Courant Number mean: 0.22061 max: 0.850057
Time = 0.365

PIMPLE: iteration 1
smoothSolver:  Solving for Ux, Initial residual = 9.97973e-07, Final residual = 9.97973e-07, No Iterations 0
smoothSolver:  Solving for Uy, Initial residual = 2.14883e-06, Final residual = 2.14883e-06, No Iterations 0
GAMG:  Solving for p, Initial residual = 5.74475e-07, Final residual = 5.74475e-07, No Iterations 0
time step continuity errors : sum local = 4.33498e-09, global = 4.41466e-19, cumulative = -8.00533e-19
GAMG:  Solving for p, Initial residual = 8.05558e-07, Final residual = 8.05558e-07, No Iterations 0
time step continuity errors : sum local = 6.07415e-09, global = 7.7937e-19, cumulative = -2.11631e-20
ExecutionTime = 0.16 s  ClockTime = 0 s

Courant Number mean: 0.22061 max: 0.850057
Time = 0.37

PIMPLE: iteration 1
smoothSolver:  Solving for Ux, Initial residual = 9.51692e-07, Final residual = 9.51692e-07, No Iterations 0
smoothSolver:  Solving for Uy, Initial residual = 2.04993e-06, Final residual = 2.04993e-06, No Iterations 0
GAMG:  Solving for p, Initial residual = 1.03961e-06, Final residual = 1.33053e-07, No Iterations 1
time step continuity errors : sum local = 1.01331e-09, global = -1.04489e-18, cumulative = -1.06606e-18
GAMG:  Solving for p, Initial residual = 4.61132e-07, Final residual = 4.61132e-07, No Iterations 0
time step continuity errors : sum local = 3.4821e-09, global = -4.96308e-22, cumulative = -1.06655e-18
ExecutionTime = 0.16 s  ClockTime = 0 s

Courant Number mean: 0.22061 max: 0.850057
Time = 0.375

PIMPLE: iteration 1
smoothSolver:  Solving for Ux, Initial residual = 9.03185e-07, Final residual = 9.03185e-07, No Iterations 0
smoothSolver:  Solving for Uy, Initial residual = 1.90498e-06, Final residual = 1.90498e-06, No Iterations 0
GAMG:  Solving for p, Initial residual = 9.40044e-07, Final residual = 9.40044e-07, No Iterations 0
time step continuity errors : sum local = 7.08611e-09, global = -2.7297e-21, cumulative = -1.06928e-18
GAMG:  Solving for p, Initial residual = 1.32353e-06, Final residual = 1.01817e-07, No Iterations 1
time step continuity errors : sum local = 7.69379e-10, global = 9.55559e-19, cumulative = -1.13725e-19
ExecutionTime = 0.16 s  ClockTime = 0 s

Courant Number mean: 0.22061 max: 0.850057
Time = 0.38

PIMPLE: iteration 1
smoothSolver:  Solving for Ux, Initial residual = 8.54008e-07, Final residual = 8.54008e-07, No Iterations 0
smoothSolver:  Solving for Uy, Initial residual = 1.81952e-06, Final residual = 1.81952e-06, No Iterations 0
GAMG:  Solving for p, Initial residual = 6.08433e-07, Final residual = 6.08433e-07, No Iterations 0
time step continuity errors : sum local = 4.57894e-09, global = 1.50216e-19, cumulative = 3.64914e-20
GAMG:  Solving for p, Initial residual = 1.08869e-06, Final residual = 8.9071e-08, No Iterations 1
time step continuity errors : sum local = 6.80182e-10, global = -1.61383e-19, cumulative = -1.24892e-19
ExecutionTime = 0.16 s  ClockTime = 0 s

Courant Number mean: 0.22061 max: 0.850057
Time = 0.385

PIMPLE: iteration 1
smoothSolver:  Solving for Ux, Initial residual = 8.05725e-07, Final residual = 8.05725e-07, No Iterations 0
smoothSolver:  Solving for Uy, Initial residual = 1.7169e-06, Final residual = 1.7169e-06, No Iterations 0
GAMG:  Solving for p, Initial residual = 3.74493e-07, Final residual = 3.74493e-07, No Iterations 0
time step continuity errors : sum local = 2.82832e-09, global = -1.44757e-18, cumulative = -1.57246e-18
GAMG:  Solving for p, Initial residual = 6.6944e-07, Final residual = 6.6944e-07, No Iterations 0
time step continuity errors : sum local = 5.04814e-09, global = 1.95297e-19, cumulative = -1.37716e-18
ExecutionTime = 0.16 s  ClockTime = 0 s

Courant Number mean: 0.22061 max: 0.850057
Time = 0.39

PIMPLE: iteration 1
smoothSolver:  Solving for Ux, Initial residual = 7.66679e-07, Final residual = 7.66679e-07, No Iterations 0
smoothSolver:  Solving for Uy, Initial residual = 1.63948e-06, Final residual = 1.63948e-06, No Iterations 0
GAMG:  Solving for p, Initial residual = 9.8397e-07, Final residual = 9.8397e-07, No Iterations 0
time step continuity errors : sum local = 7.41535e-09, global = -5.64468e-19, cumulative = -1.94163e-18
GAMG:  Solving for p, Initial residual = 1.25657e-06, Final residual = 1.28734e-07, No Iterations 1
time step continuity errors : sum local = 9.72503e-10, global = -1.27386e-20, cumulative = -1.95437e-18
ExecutionTime = 0.16 s  ClockTime = 0 s

Courant Number mean: 0.220611 max: 0.850057
Time = 0.395

PIMPLE: iteration 1
smoothSolver:  Solving for Ux, Initial residual = 7.228e-07, Final residual = 7.228e-07, No Iterations 0
smoothSolver:  Solving for Uy, Initial residual = 1.52462e-06, Final residual = 1.52462e-06, No Iterations 0
GAMG:  Solving for p, Initial residual = 6.04932e-07, Final residual = 6.04932e-07, No Iterations 0
time step continuity errors : sum local = 4.54949e-09, global = -3.99528e-20, cumulative = -1.99432e-18
GAMG:  Solving for p, Initial residual = 1.05503e-06, Final residual = 8.29188e-08, No Iterations 1
time step continuity errors : sum local = 6.24255e-10, global = -5.90607e-20, cumulative = -2.05338e-18
ExecutionTime = 0.16 s  ClockTime = 0 s

Courant Number mean: 0.220611 max: 0.850057
Time = 0.4

PIMPLE: iteration 1
smoothSolver:  Solving for Ux, Initial residual = 6.85451e-07, Final residual = 6.85451e-07, No Iterations 0
smoothSolver:  Solving for Uy, Initial residual = 1.45376e-06, Final residual = 1.45376e-06, No Iterations 0
GAMG:  Solving for p, Initial residual = 3.59756e-07, Final residual = 3.59756e-07, No Iterations 0
time step continuity errors : sum local = 2.70778e-09, global = -5.09543e-20, cumulative = -2.10433e-18
GAMG:  Solving for p, Initial residual = 6.39535e-07, Final residual = 6.39535e-07, No Iterations 0
time step continuity errors : sum local = 4.81345e-09, global = -5.32125e-19, cumulative = -2.63646e-18
ExecutionTime = 0.16 s  ClockTime = 0 s

Courant Number mean: 0.220611 max: 0.850057
Time = 0.405

PIMPLE: iteration 1
smoothSolver:  Solving for Ux, Initial residual = 6.51366e-07, Final residual = 6.51366e-07, No Iterations 0
smoothSolver:  Solving for Uy, Initial residual = 1.38862e-06, Final residual = 1.38862e-06, No Iterations 0
GAMG:  Solving for p, Initial residual = 9.2781e-07, Final residual = 9.2781e-07, No Iterations 0
time step continuity errors : sum local = 6.98305e-09, global = 5.19139e-19, cumulative = -2.11732e-18
GAMG:  Solving for p, Initial residual = 1.17043e-06, Final residual = 1.05002e-07, No Iterations 1
time step continuity errors : sum local = 8.01518e-10, global = 6.48758e-19, cumulative = -1.46856e-18
ExecutionTime = 0.16 s  ClockTime = 0 s

Courant Number mean: 0.220611 max: 0.850057
Time = 0.41

PIMPLE: iteration 1
smoothSolver:  Solving for Ux, Initial residual = 6.14666e-07, Final residual = 6.14666e-07, No Iterations 0
smoothSolver:  Solving for Uy, Initial residual = 1.29452e-06, Final residual = 1.29452e-06, No Iterations 0
GAMG:  Solving for p, Initial residual = 5.70159e-07, Final residual = 5.70159e-07, No Iterations 0
time step continuity errors : sum local = 4.30249e-09, global = -5.83245e-19, cumulative = -2.05181e-18
GAMG:  Solving for p, Initial residual = 9.87119e-07, Final residual = 9.87119e-07, No Iterations 0
time step continuity errors : sum local = 7.44061e-09, global = -7.53562e-19, cumulative = -2.80537e-18
ExecutionTime = 0.16 s  ClockTime = 0 s

Courant Number mean: 0.220611 max: 0.850057
Time = 0.415

PIMPLE: iteration 1
smoothSolver:  Solving for Ux, Initial residual = 5.76536e-07, Final residual = 5.76536e-07, No Iterations 0
smoothSolver:  Solving for Uy, Initial residual = 1.23247e-06, Final residual = 1.23247e-06, No Iterations 0
GAMG:  Solving for p, Initial residual = 1.3732e-06, Final residual = 1.05666e-07, No Iterations 1
time step continuity errors : sum local = 7.98073e-10, global = -5.43458e-20, cumulative = -2.85972e-18
GAMG:  Solving for p, Initial residual = 5.89725e-07, Final residual = 5.89725e-07, No Iterations 0
time step continuity errors : sum local = 4.4399e-09, global = 4.99286e-19, cumulative = -2.36043e-18
ExecutionTime = 0.17 s  ClockTime = 0 s

Courant Number mean: 0.220611 max: 0.850057
Time = 0.42

PIMPLE: iteration 1
smoothSolver:  Solving for Ux, Initial residual = 5.65287e-07, Final residual = 5.65287e-07, No Iterations 0
smoothSolver:  Solving for Uy, Initial residual = 1.17401e-06, Final residual = 1.17401e-06, No Iterations 0
GAMG:  Solving for p, Initial residual = 1.17271e-06, Final residual = 8.47356e-08, No Iterations 1
time step continuity errors : sum local = 6.44608e-10, global = 4.8572e-19, cumulative = -1.87471e-18
GAMG:  Solving for p, Initial residual = 3.48001e-07, Final residual = 3.48001e-07, No Iterations 0
time step continuity errors : sum local = 2.62599e-09, global = 8.10058e-19, cumulative = -1.06465e-18
ExecutionTime = 0.17 s  ClockTime = 0 s

Courant Number mean: 0.220611 max: 0.850057
Time = 0.425

PIMPLE: iteration 1
smoothSolver:  Solving for Ux, Initial residual = 5.1726e-07, Final residual = 5.1726e-07, No Iterations 0
smoothSolver:  Solving for Uy, Initial residual = 1.1085e-06, Final residual = 1.1085e-06, No Iterations 0
GAMG:  Solving for p, Initial residual = 6.4741e-07, Final residual = 6.4741e-07, No Iterations 0
time step continuity errors : sum local = 4.87939e-09, global = -8.44303e-19, cumulative = -1.90895e-18
GAMG:  Solving for p, Initial residual = 8.76891e-07, Final residual = 8.76891e-07, No Iterations 0
time step continuity errors : sum local = 6.60651e-09, global = -6.29071e-19, cumulative = -2.53803e-18
ExecutionTime = 0.17 s  ClockTime = 0 s

Courant Number mean: 0.220611 max: 0.850057
Time = 0.43

PIMPLE: iteration 1
smoothSolver:  Solving for Ux, Initial residual = 4.90779e-07, Final residual = 4.90779e-07, No Iterations 0
smoothSolver:  Solving for Uy, Initial residual = 1.0575e-06, Final residual = 1.0575e-06, No Iterations 0
GAMG:  Solving for p, Initial residual = 1.10192e-06, Final residual = 9.22983e-08, No Iterations 1
time step continuity errors : sum local = 6.96201e-10, global = 4.56356e-19, cumulative = -2.08167e-18
GAMG:  Solving for p, Initial residual = 5.09204e-07, Final residual = 5.09204e-07, No Iterations 0
time step continuity errors : sum local = 3.83119e-09, global = -5.57768e-19, cumulative = -2.63944e-18
ExecutionTime = 0.17 s  ClockTime = 0 s

Courant Number mean: 0.220611 max: 0.850058
Time = 0.435

PIMPLE: iteration 1
smoothSolver:  Solving for Ux, Initial residual = 4.71908e-07, Final residual = 4.71908e-07, No Iterations 0
smoothSolver:  Solving for Uy, Initial residual = 9.84798e-07, Final residual = 9.84798e-07, No Iterations 0
GAMG:  Solving for p, Initial residual = 9.71761e-07, Final residual = 9.71761e-07, No Iterations 0
time step continuity errors : sum local = 7.31069e-09, global = 2.70736e-19, cumulative = -2.3687e-18
GAMG:  Solving for p, Initial residual = 1.31093e-06, Final residual = 8.31055e-08, No Iterations 1
time step continuity errors : sum local = 6.28335e-10, global = 4.41218e-19, cumulative = -1.92748e-18
ExecutionTime = 0.17 s  ClockTime = 0 s

Courant Number mean: 0.220612 max: 0.850058
Time = 0.44

PIMPLE: iteration 1
smoothSolver:  Solving for Ux, Initial residual = 4.54954e-07, Final residual = 4.54954e-07, No Iterations 0
smoothSolver:  Solving for Uy, Initial residual = 9.34899e-07, Final residual = 9.34899e-07, No Iterations 0
GAMG:  Solving for p, Initial residual = 6.18679e-07, Final residual = 6.18679e-07, No Iterations 0
time step continuity errors : sum local = 4.65916e-09, global = -5.17732e-19, cumulative = -2.44522e-18
GAMG:  Solving for p, Initial residual = 1.05614e-06, Final residual = 6.11094e-08, No Iterations 1
time step continuity errors : sum local = 4.64055e-10, global = -1.04804e-19, cumulative = -2.55002e-18
ExecutionTime = 0.17 s  ClockTime = 0 s

Courant Number mean: 0.220612 max: 0.850058
Time = 0.445

PIMPLE: iteration 1
smoothSolver:  Solving for Ux, Initial residual = 4.1741e-07, Final residual = 4.1741e-07, No Iterations 0
smoothSolver:  Solving for Uy, Initial residual = 8.86232e-07, Final residual = 8.86232e-07, No Iterations 0
GAMG:  Solving for p, Initial residual = 3.45403e-07, Final residual = 3.45403e-07, No Iterations 0
time step continuity errors : sum local = 2.60358e-09, global = 7.89627e-19, cumulative = -1.76039e-18
GAMG:  Solving for p, Initial residual = 5.85553e-07, Final residual = 5.85553e-07, No Iterations 0
time step continuity errors : sum local = 4.41105e-09, global = -6.87139e-19, cumulative = -2.44753e-18
ExecutionTime = 0.17 s  ClockTime = 0 s

Courant Number mean: 0.220612 max: 0.850058
Time = 0.45

PIMPLE: iteration 1
smoothSolver:  Solving for Ux, Initial residual = 3.94405e-07, Final residual = 3.94405e-07, No Iterations 0
smoothSolver:  Solving for Uy, Initial residual = 8.45493e-07, Final residual = 8.45493e-07, No Iterations 0
GAMG:  Solving for p, Initial residual = 8.06877e-07, Final residual = 8.06877e-07, No Iterations 0
time step continuity errors : sum local = 6.07683e-09, global = -3.55274e-19, cumulative = -2.80281e-18
GAMG:  Solving for p, Initial residual = 9.79814e-07, Final residual = 9.79814e-07, No Iterations 0
time step continuity errors : sum local = 7.37839e-09, global = -5.21703e-19, cumulative = -3.32451e-18
ExecutionTime = 0.17 s  ClockTime = 0 s

Courant Number mean: 0.220612 max: 0.850058
Time = 0.455

PIMPLE: iteration 1
smoothSolver:  Solving for Ux, Initial residual = 3.74863e-07, Final residual = 3.74863e-07, No Iterations 0
smoothSolver:  Solving for Uy, Initial residual = 8.06253e-07, Final residual = 8.06253e-07, No Iterations 0
GAMG:  Solving for p, Initial residual = 1.14986e-06, Final residual = 1.01804e-07, No Iterations 1
time step continuity errors : sum local = 7.72502e-10, global = -4.34435e-19, cumulative = -3.75894e-18
GAMG:  Solving for p, Initial residual = 5.6094e-07, Final residual = 5.6094e-07, No Iterations 0
time step continuity errors : sum local = 4.22787e-09, global = 1.43847e-19, cumulative = -3.6151e-18
ExecutionTime = 0.17 s  ClockTime = 0 s

Courant Number mean: 0.220612 max: 0.850058
Time = 0.46

PIMPLE: iteration 1
smoothSolver:  Solving for Ux, Initial residual = 3.63573e-07, Final residual = 3.63573e-07, No Iterations 0
smoothSolver:  Solving for Uy, Initial residual = 7.41153e-07, Final residual = 7.41153e-07, No Iterations 0
GAMG:  Solving for p, Initial residual = 1.08187e-06, Final residual = 6.08721e-08, No Iterations 1
time step continuity errors : sum local = 4.60634e-10, global = -1.22125e-18, cumulative = -4.83635e-18
GAMG:  Solving for p, Initial residual = 2.9463e-07, Final residual = 2.9463e-07, No Iterations 0
time step continuity errors : sum local = 2.21947e-09, global = 1.66511e-19, cumulative = -4.66984e-18
ExecutionTime = 0.17 s  ClockTime = 0 s

Courant Number mean: 0.220612 max: 0.850058
Time = 0.465

PIMPLE: iteration 1
smoothSolver:  Solving for Ux, Initial residual = 3.35476e-07, Final residual = 3.35476e-07, No Iterations 0
smoothSolver:  Solving for Uy, Initial residual = 7.1179e-07, Final residual = 7.1179e-07, No Iterations 0
GAMG:  Solving for p, Initial residual = 5.72445e-07, Final residual = 5.72445e-07, No Iterations 0
time step continuity errors : sum local = 4.31003e-09, global = -1.73708e-20, cumulative = -4.68721e-18
GAMG:  Solving for p, Initial residual = 7.70677e-07, Final residual = 7.70677e-07, No Iterations 0
time step continuity errors : sum local = 5.80238e-09, global = 1.06127e-18, cumulative = -3.62593e-18
ExecutionTime = 0.17 s  ClockTime = 0 s

Courant Number mean: 0.220612 max: 0.850058
Time = 0.47

PIMPLE: iteration 1
smoothSolver:  Solving for Ux, Initial residual = 3.17619e-07, Final residual = 3.17619e-07, No Iterations 0
smoothSolver:  Solving for Uy, Initial residual = 6.79238e-07, Final residual = 6.79238e-07, No Iterations 0
GAMG:  Solving for p, Initial residual = 9.54687e-07, Final residual = 9.54687e-07, No Iterations 0
time step continuity errors : sum local = 7.1877e-09, global = 2.99936e-19, cumulative = -3.326e-18
GAMG:  Solving for p, Initial residual = 1.09699e-06, Final residual = 7.33804e-08, No Iterations 1
time step continuity errors : sum local = 5.62156e-10, global = -2.9001e-19, cumulative = -3.61601e-18
ExecutionTime = 0.18 s  ClockTime = 0 s

Courant Number mean: 0.220612 max: 0.850058
Time = 0.475

PIMPLE: iteration 1
smoothSolver:  Solving for Ux, Initial residual = 3.17975e-07, Final residual = 3.17975e-07, No Iterations 0
smoothSolver:  Solving for Uy, Initial residual = 6.31382e-07, Final residual = 6.31382e-07, No Iterations 0
GAMG:  Solving for p, Initial residual = 6.092e-07, Final residual = 6.092e-07, No Iterations 0
time step continuity errors : sum local = 4.59483e-09, global = -3.91753e-19, cumulative = -4.00776e-18
GAMG:  Solving for p, Initial residual = 1.04234e-06, Final residual = 5.82525e-08, No Iterations 1
time step continuity errors : sum local = 4.39407e-10, global = 5.29892e-19, cumulative = -3.47787e-18
ExecutionTime = 0.18 s  ClockTime = 0 s

Courant Number mean: 0.220612 max: 0.850058
Time = 0.48

PIMPLE: iteration 1
smoothSolver:  Solving for Ux, Initial residual = 2.86385e-07, Final residual = 2.86385e-07, No Iterations 0
smoothSolver:  Solving for Uy, Initial residual = 6.01171e-07, Final residual = 6.01171e-07, No Iterations 0
GAMG:  Solving for p, Initial residual = 3.18116e-07, Final residual = 3.18116e-07, No Iterations 0
time step continuity errors : sum local = 2.39243e-09, global = -1.65602e-19, cumulative = -3.64347e-18
GAMG:  Solving for p, Initial residual = 5.4242e-07, Final residual = 5.4242e-07, No Iterations 0
time step continuity errors : sum local = 4.08058e-09, global = -4.32202e-19, cumulative = -4.07567e-18
ExecutionTime = 0.19 s  ClockTime = 0 s

Courant Number mean: 0.220612 max: 0.850058
Time = 0.485

PIMPLE: iteration 1
smoothSolver:  Solving for Ux, Initial residual = 2.69606e-07, Final residual = 2.69606e-07, No Iterations 0
smoothSolver:  Solving for Uy, Initial residual = 5.73313e-07, Final residual = 5.73313e-07, No Iterations 0
GAMG:  Solving for p, Initial residual = 7.48983e-07, Final residual = 7.48983e-07, No Iterations 0
time step continuity errors : sum local = 5.63521e-09, global = -1.14085e-18, cumulative = -5.21652e-18
GAMG:  Solving for p, Initial residual = 9.05329e-07, Final residual = 9.05329e-07, No Iterations 0
time step continuity errors : sum local = 6.8119e-09, global = 4.79599e-19, cumulative = -4.73692e-18
ExecutionTime = 0.19 s  ClockTime = 0 s

Courant Number mean: 0.220612 max: 0.850058
Time = 0.49

PIMPLE: iteration 1
smoothSolver:  Solving for Ux, Initial residual = 2.55616e-07, Final residual = 2.55616e-07, No Iterations 0
smoothSolver:  Solving for Uy, Initial residual = 5.46813e-07, Final residual = 5.46813e-07, No Iterations 0
GAMG:  Solving for p, Initial residual = 1.05098e-06, Final residual = 7.51439e-08, No Iterations 1
time step continuity errors : sum local = 5.72412e-10, global = -1.94966e-19, cumulative = -4.93189e-18
GAMG:  Solving for p, Initial residual = 5.12407e-07, Final residual = 5.12407e-07, No Iterations 0
time step continuity errors : sum local = 3.86357e-09, global = -4.40722e-19, cumulative = -5.37261e-18
ExecutionTime = 0.19 s  ClockTime = 0 s

Courant Number mean: 0.220612 max: 0.850058
Time = 0.495

PIMPLE: iteration 1
smoothSolver:  Solving for Ux, Initial residual = 2.5499e-07, Final residual = 2.5499e-07, No Iterations 0
smoothSolver:  Solving for Uy, Initial residual = 5.05152e-07, Final residual = 5.05152e-07, No Iterations 0
GAMG:  Solving for p, Initial residual = 9.95576e-07, Final residual = 9.95576e-07, No Iterations 0
time step continuity errors : sum local = 7.49999e-09, global = -1.5637e-18, cumulative = -6.93631e-18
GAMG:  Solving for p, Initial residual = 1.33765e-06, Final residual = 7.11472e-08, No Iterations 1
time step continuity errors : sum local = 5.42591e-10, global = 4.45023e-19, cumulative = -6.49129e-18
ExecutionTime = 0.19 s  ClockTime = 0 s

Courant Number mean: 0.220612 max: 0.850058
Time = 0.5

PIMPLE: iteration 1
smoothSolver:  Solving for Ux, Initial residual = 2.48058e-07, Final residual = 2.48058e-07, No Iterations 0
smoothSolver:  Solving for Uy, Initial residual = 4.85067e-07, Final residual = 4.85067e-07, No Iterations 0
GAMG:  Solving for p, Initial residual = 5.94993e-07, Final residual = 5.94993e-07, No Iterations 0
time step continuity errors : sum local = 4.48267e-09, global = -6.53473e-19, cumulative = -7.14476e-18
GAMG:  Solving for p, Initial residual = 1.0268e-06, Final residual = 5.52967e-08, No Iterations 1
time step continuity errors : sum local = 4.23431e-10, global = 5.84651e-19, cumulative = -6.56011e-18
ExecutionTime = 0.19 s  ClockTime = 0 s

End

